final_scenarios/scenario_2/config_files/IEEE.dss

clear

Set DefaultBaseFrequency=50

new circuit.name bus1=sourcebus baseKv=11 pu=1.05 angle=0 frequency=50 phases=3 MVAsc1=1000000 MVAsc3=1000000 x1r1=10 x0r0=10

new line.L1 bus1=b1.1.2.3.4 bus2=b2.1.2.3.4 length=0.016647 phases=4 units=km rmatrix=[1.6954 | 1.2494 1.6954 | 1.2494 1.2494 1.6954 | 1.2494 1.2494 1.2494 1.6954 ] xmatrix=[-0.5404 |  -0.6114 -0.5404 | -0.6114 -0.6114 -0.5404 | -0.6114 -0.6114 -0.6114 -0.5404] cmatrix=[0 | 0 0 | 0 0 0 | 0 0 0 0 ] Rg=0 Xg=0
new line.L10 bus1=b9.1.2.3.4 bus2=b11.1.2.3.4 length=0.0064441 phases=4 units=km rmatrix=[1.1669 | 0.01691 1.1669 | 0.01691 0.01691 1.1669 | 0.01691 0.01691 0.01691 1.1669 ] xmatrix=[0.087981 |  -1.8917e-05 0.087981 | -1.8917e-05 -1.8917e-05 0.087981 | -1.8917e-05 -1.8917e-05 -1.8917e-05 0.087981] cmatrix=[0 | 0 0 | 0 0 0 | 0 0 0 0 ] Rg=0 Xg=0
new line.L100 bus1=b99.1.2.3.4 bus2=b101.1.2.3.4 length=0.00069938 phases=4 units=km rmatrix=[1.7887 | 1.3197 1.7887 | 1.3197 1.3197 1.7887 | 1.3197 1.3197 1.3197 1.7887 ] xmatrix=[-0.55184 |  -0.62684 -0.55184 | -0.62684 -0.62684 -0.55184 | -0.62684 -0.62684 -0.62684 -0.55184] cmatrix=[0 | 0 0 | 0 0 0 | 0 0 0 0 ] Rg=0 Xg=0
new line.L101 bus1=b99.1.2.3.4 bus2=b102.1.2.3.4 length=0.00069938 phases=4 units=km rmatrix=[1.7887 | 1.3197 1.7887 | 1.3197 1.3197 1.7887 | 1.3197 1.3197 1.3197 1.7887 ] xmatrix=[-0.55184 |  -0.62684 -0.55184 | -0.62684 -0.62684 -0.55184 | -0.62684 -0.62684 -0.62684 -0.55184] cmatrix=[0 | 0 0 | 0 0 0 | 0 0 0 0 ] Rg=0 Xg=0
new line.L102 bus1=b71.1.2.3.4 bus2=b103.1.2.3.4 length=0.010472 phases=4 units=km rmatrix=[1.1669 | 0.01691 1.1669 | 0.01691 0.01691 1.1669 | 0.01691 0.01691 0.01691 1.1669 ] xmatrix=[0.087981 |  -1.8917e-05 0.087981 | -1.8917e-05 -1.8917e-05 0.087981 | -1.8917e-05 -1.8917e-05 -1.8917e-05 0.087981] cmatrix=[0 | 0 0 | 0 0 0 | 0 0 0 0 ] Rg=0 Xg=0
new line.L103 bus1=b71.1.2.3.4 bus2=b104.1.2.3.4 length=0.0029368 phases=4 units=km rmatrix=[0.8455 | 0.5715 0.8455 | 0.5715 0.5715 0.8455 | 0.5715 0.5715 0.5715 0.8455 ] xmatrix=[-0.43853 |  -0.51153 -0.43853 | -0.51153 -0.51153 -0.43853 | -0.51153 -0.51153 -0.51153 -0.43853] cmatrix=[0 | 0 0 | 0 0 0 | 0 0 0 0 ] Rg=0 Xg=0
new line.L104 bus1=b101.1.2.3.4 bus2=b105.1.2.3.4 length=0.0018857 phases=4 units=km rmatrix=[1.7887 | 1.3197 1.7887 | 1.3197 1.3197 1.7887 | 1.3197 1.3197 1.3197 1.7887 ] xmatrix=[-0.55184 |  -0.62684 -0.55184 | -0.62684 -0.62684 -0.55184 | -0.62684 -0.62684 -0.62684 -0.55184] cmatrix=[0 | 0 0 | 0 0 0 | 0 0 0 0 ] Rg=0 Xg=0
new line.L105 bus1=b101.1.2.3.4 bus2=b106.1.2.3.4 length=0.0018857 phases=4 units=km rmatrix=[1.7887 | 1.3197 1.7887 | 1.3197 1.3197 1.7887 | 1.3197 1.3197 1.3197 1.7887 ] xmatrix=[-0.55184 |  -0.62684 -0.55184 | -0.62684 -0.62684 -0.55184 | -0.62684 -0.62684 -0.62684 -0.55184] cmatrix=[0 | 0 0 | 0 0 0 | 0 0 0 0 ] Rg=0 Xg=0
new line.L106 bus1=b101.1.2.3.4 bus2=b107.1.2.3.4 length=0.010658 phases=4 units=km rmatrix=[1.1669 | 0.01691 1.1669 | 0.01691 0.01691 1.1669 | 0.01691 0.01691 0.01691 1.1669 ] xmatrix=[0.087981 |  -1.8917e-05 0.087981 | -1.8917e-05 -1.8917e-05 0.087981 | -1.8917e-05 -1.8917e-05 -1.8917e-05 0.087981] cmatrix=[0 | 0 0 | 0 0 0 | 0 0 0 0 ] Rg=0 Xg=0
new line.L107 bus1=b105.1.2.3.4 bus2=b108.1.2.3.4 length=0.0013881 phases=4 units=km rmatrix=[1.7887 | 1.3197 1.7887 | 1.3197 1.3197 1.7887 | 1.3197 1.3197 1.3197 1.7887 ] xmatrix=[-0.55184 |  -0.62684 -0.55184 | -0.62684 -0.62684 -0.55184 | -0.62684 -0.62684 -0.62684 -0.55184] cmatrix=[0 | 0 0 | 0 0 0 | 0 0 0 0 ] Rg=0 Xg=0
new line.L108 bus1=b105.1.2.3.4 bus2=b109.1.2.3.4 length=0.0013881 phases=4 units=km rmatrix=[1.7887 | 1.3197 1.7887 | 1.3197 1.3197 1.7887 | 1.3197 1.3197 1.3197 1.7887 ] xmatrix=[-0.55184 |  -0.62684 -0.55184 | -0.62684 -0.62684 -0.55184 | -0.62684 -0.62684 -0.62684 -0.55184] cmatrix=[0 | 0 0 | 0 0 0 | 0 0 0 0 ] Rg=0 Xg=0
new line.L109 bus1=b108.1.2.3.4 bus2=b110.1.2.3.4 length=0.0018899 phases=4 units=km rmatrix=[1.7887 | 1.3197 1.7887 | 1.3197 1.3197 1.7887 | 1.3197 1.3197 1.3197 1.7887 ] xmatrix=[-0.55184 |  -0.62684 -0.55184 | -0.62684 -0.62684 -0.55184 | -0.62684 -0.62684 -0.62684 -0.55184] cmatrix=[0 | 0 0 | 0 0 0 | 0 0 0 0 ] Rg=0 Xg=0
new line.L11 bus1=b9.1.2.3.4 bus2=b12.1.2.3.4 length=0.0061526 phases=4 units=km rmatrix=[1.1669 | 0.01691 1.1669 | 0.01691 0.01691 1.1669 | 0.01691 0.01691 0.01691 1.1669 ] xmatrix=[0.087981 |  -1.8917e-05 0.087981 | -1.8917e-05 -1.8917e-05 0.087981 | -1.8917e-05 -1.8917e-05 -1.8917e-05 0.087981] cmatrix=[0 | 0 0 | 0 0 0 | 0 0 0 0 ] Rg=0 Xg=0
new line.L110 bus1=b108.1.2.3.4 bus2=b111.1.2.3.4 length=0.0018899 phases=4 units=km rmatrix=[1.7887 | 1.3197 1.7887 | 1.3197 1.3197 1.7887 | 1.3197 1.3197 1.3197 1.7887 ] xmatrix=[-0.55184 |  -0.62684 -0.55184 | -0.62684 -0.62684 -0.55184 | -0.62684 -0.62684 -0.62684 -0.55184] cmatrix=[0 | 0 0 | 0 0 0 | 0 0 0 0 ] Rg=0 Xg=0
new line.L111 bus1=b69.1.2.3.4 bus2=b112.1.2.3.4 length=0.0098006 phases=4 units=km rmatrix=[1.1669 | 0.01691 1.1669 | 0.01691 0.01691 1.1669 | 0.01691 0.01691 0.01691 1.1669 ] xmatrix=[0.087981 |  -1.8917e-05 0.087981 | -1.8917e-05 -1.8917e-05 0.087981 | -1.8917e-05 -1.8917e-05 -1.8917e-05 0.087981] cmatrix=[0 | 0 0 | 0 0 0 | 0 0 0 0 ] Rg=0 Xg=0
new line.L112 bus1=b69.1.2.3.4 bus2=b113.1.2.3.4 length=0.0055837 phases=4 units=km rmatrix=[1.1669 | 0.01691 1.1669 | 0.01691 0.01691 1.1669 | 0.01691 0.01691 0.01691 1.1669 ] xmatrix=[0.087981 |  -1.8917e-05 0.087981 | -1.8917e-05 -1.8917e-05 0.087981 | -1.8917e-05 -1.8917e-05 -1.8917e-05 0.087981] cmatrix=[0 | 0 0 | 0 0 0 | 0 0 0 0 ] Rg=0 Xg=0
new line.L113 bus1=b110.1.2.3.4 bus2=b114.1.2.3.4 length=0.0013374 phases=4 units=km rmatrix=[1.7887 | 1.3197 1.7887 | 1.3197 1.3197 1.7887 | 1.3197 1.3197 1.3197 1.7887 ] xmatrix=[-0.55184 |  -0.62684 -0.55184 | -0.62684 -0.62684 -0.55184 | -0.62684 -0.62684 -0.62684 -0.55184] cmatrix=[0 | 0 0 | 0 0 0 | 0 0 0 0 ] Rg=0 Xg=0
new line.L114 bus1=b110.1.2.3.4 bus2=b115.1.2.3.4 length=0.0013374 phases=4 units=km rmatrix=[1.7887 | 1.3197 1.7887 | 1.3197 1.3197 1.7887 | 1.3197 1.3197 1.3197 1.7887 ] xmatrix=[-0.55184 |  -0.62684 -0.55184 | -0.62684 -0.62684 -0.55184 | -0.62684 -0.62684 -0.62684 -0.55184] cmatrix=[0 | 0 0 | 0 0 0 | 0 0 0 0 ] Rg=0 Xg=0
new line.L115 bus1=b114.1.2.3.4 bus2=b116.1.2.3.4 length=0.0037401 phases=4 units=km rmatrix=[1.7887 | 1.3197 1.7887 | 1.3197 1.3197 1.7887 | 1.3197 1.3197 1.3197 1.7887 ] xmatrix=[-0.55184 |  -0.62684 -0.55184 | -0.62684 -0.62684 -0.55184 | -0.62684 -0.62684 -0.62684 -0.55184] cmatrix=[0 | 0 0 | 0 0 0 | 0 0 0 0 ] Rg=0 Xg=0
new line.L116 bus1=b114.1.2.3.4 bus2=b117.1.2.3.4 length=0.0037401 phases=4 units=km rmatrix=[1.7887 | 1.3197 1.7887 | 1.3197 1.3197 1.7887 | 1.3197 1.3197 1.3197 1.7887 ] xmatrix=[-0.55184 |  -0.62684 -0.55184 | -0.62684 -0.62684 -0.55184 | -0.62684 -0.62684 -0.62684 -0.55184] cmatrix=[0 | 0 0 | 0 0 0 | 0 0 0 0 ] Rg=0 Xg=0
new line.L117 bus1=b107.1.2.3.4 bus2=b118.1.2.3.4 length=0.006377 phases=4 units=km rmatrix=[1.1669 | 0.01691 1.1669 | 0.01691 0.01691 1.1669 | 0.01691 0.01691 0.01691 1.1669 ] xmatrix=[0.087981 |  -1.8917e-05 0.087981 | -1.8917e-05 -1.8917e-05 0.087981 | -1.8917e-05 -1.8917e-05 -1.8917e-05 0.087981] cmatrix=[0 | 0 0 | 0 0 0 | 0 0 0 0 ] Rg=0 Xg=0
new line.L118 bus1=b107.1.2.3.4 bus2=b119.1.2.3.4 length=0.0066554 phases=4 units=km rmatrix=[1.1669 | 0.01691 1.1669 | 0.01691 0.01691 1.1669 | 0.01691 0.01691 0.01691 1.1669 ] xmatrix=[0.087981 |  -1.8917e-05 0.087981 | -1.8917e-05 -1.8917e-05 0.087981 | -1.8917e-05 -1.8917e-05 -1.8917e-05 0.087981] cmatrix=[0 | 0 0 | 0 0 0 | 0 0 0 0 ] Rg=0 Xg=0
new line.L119 bus1=b116.1.2.3.4 bus2=b120.1.2.3.4 length=0.0027082 phases=4 units=km rmatrix=[1.7887 | 1.3197 1.7887 | 1.3197 1.3197 1.7887 | 1.3197 1.3197 1.3197 1.7887 ] xmatrix=[-0.55184 |  -0.62684 -0.55184 | -0.62684 -0.62684 -0.55184 | -0.62684 -0.62684 -0.62684 -0.55184] cmatrix=[0 | 0 0 | 0 0 0 | 0 0 0 0 ] Rg=0 Xg=0
new line.L12 bus1=b10.1.2.3.4 bus2=b13.1.2.3.4 length=0.0097762 phases=4 units=km rmatrix=[1.6954 | 1.2494 1.6954 | 1.2494 1.2494 1.6954 | 1.2494 1.2494 1.2494 1.6954 ] xmatrix=[-0.5404 |  -0.6114 -0.5404 | -0.6114 -0.6114 -0.5404 | -0.6114 -0.6114 -0.6114 -0.5404] cmatrix=[0 | 0 0 | 0 0 0 | 0 0 0 0 ] Rg=0 Xg=0
new line.L120 bus1=b116.1.2.3.4 bus2=b121.1.2.3.4 length=0.0027082 phases=4 units=km rmatrix=[1.7887 | 1.3197 1.7887 | 1.3197 1.3197 1.7887 | 1.3197 1.3197 1.3197 1.7887 ] xmatrix=[-0.55184 |  -0.62684 -0.55184 | -0.62684 -0.62684 -0.55184 | -0.62684 -0.62684 -0.62684 -0.55184] cmatrix=[0 | 0 0 | 0 0 0 | 0 0 0 0 ] Rg=0 Xg=0
new line.L121 bus1=b120.1.2.3.4 bus2=b122.1.2.3.4 length=0.00060068 phases=4 units=km rmatrix=[1.7887 | 1.3197 1.7887 | 1.3197 1.3197 1.7887 | 1.3197 1.3197 1.3197 1.7887 ] xmatrix=[-0.55184 |  -0.62684 -0.55184 | -0.62684 -0.62684 -0.55184 | -0.62684 -0.62684 -0.62684 -0.55184] cmatrix=[0 | 0 0 | 0 0 0 | 0 0 0 0 ] Rg=0 Xg=0
new line.L122 bus1=b120.1.2.3.4 bus2=b123.1.2.3.4 length=0.00060068 phases=4 units=km rmatrix=[1.7887 | 1.3197 1.7887 | 1.3197 1.3197 1.7887 | 1.3197 1.3197 1.3197 1.7887 ] xmatrix=[-0.55184 |  -0.62684 -0.55184 | -0.62684 -0.62684 -0.55184 | -0.62684 -0.62684 -0.62684 -0.55184] cmatrix=[0 | 0 0 | 0 0 0 | 0 0 0 0 ] Rg=0 Xg=0
new line.L123 bus1=b120.1.2.3.4 bus2=b124.1.2.3.4 length=0.013713 phases=4 units=km rmatrix=[1.1669 | 0.01691 1.1669 | 0.01691 0.01691 1.1669 | 0.01691 0.01691 0.01691 1.1669 ] xmatrix=[0.087981 |  -1.8917e-05 0.087981 | -1.8917e-05 -1.8917e-05 0.087981 | -1.8917e-05 -1.8917e-05 -1.8917e-05 0.087981] cmatrix=[0 | 0 0 | 0 0 0 | 0 0 0 0 ] Rg=0 Xg=0
new line.L124 bus1=b122.1.2.3.4 bus2=b125.1.2.3.4 length=0.00014223 phases=4 units=km rmatrix=[1.7887 | 1.3197 1.7887 | 1.3197 1.3197 1.7887 | 1.3197 1.3197 1.3197 1.7887 ] xmatrix=[-0.55184 |  -0.62684 -0.55184 | -0.62684 -0.62684 -0.55184 | -0.62684 -0.62684 -0.62684 -0.55184] cmatrix=[0 | 0 0 | 0 0 0 | 0 0 0 0 ] Rg=0 Xg=0
new line.L125 bus1=b122.1.2.3.4 bus2=b126.1.2.3.4 length=0.00014223 phases=4 units=km rmatrix=[1.7887 | 1.3197 1.7887 | 1.3197 1.3197 1.7887 | 1.3197 1.3197 1.3197 1.7887 ] xmatrix=[-0.55184 |  -0.62684 -0.55184 | -0.62684 -0.62684 -0.55184 | -0.62684 -0.62684 -0.62684 -0.55184] cmatrix=[0 | 0 0 | 0 0 0 | 0 0 0 0 ] Rg=0 Xg=0
new line.L126 bus1=b125.1.2.3.4 bus2=b127.1.2.3.4 length=0.0038558 phases=4 units=km rmatrix=[1.7887 | 1.3197 1.7887 | 1.3197 1.3197 1.7887 | 1.3197 1.3197 1.3197 1.7887 ] xmatrix=[-0.55184 |  -0.62684 -0.55184 | -0.62684 -0.62684 -0.55184 | -0.62684 -0.62684 -0.62684 -0.55184] cmatrix=[0 | 0 0 | 0 0 0 | 0 0 0 0 ] Rg=0 Xg=0
new line.L127 bus1=b125.1.2.3.4 bus2=b128.1.2.3.4 length=0.0038558 phases=4 units=km rmatrix=[1.7887 | 1.3197 1.7887 | 1.3197 1.3197 1.7887 | 1.3197 1.3197 1.3197 1.7887 ] xmatrix=[-0.55184 |  -0.62684 -0.55184 | -0.62684 -0.62684 -0.55184 | -0.62684 -0.62684 -0.62684 -0.55184] cmatrix=[0 | 0 0 | 0 0 0 | 0 0 0 0 ] Rg=0 Xg=0
new line.L128 bus1=b125.1.2.3.4 bus2=b129.1.2.3.4 length=0.0024274 phases=4 units=km rmatrix=[1.7887 | 1.3197 1.7887 | 1.3197 1.3197 1.7887 | 1.3197 1.3197 1.3197 1.7887 ] xmatrix=[-0.55184 |  -0.62684 -0.55184 | -0.62684 -0.62684 -0.55184 | -0.62684 -0.62684 -0.62684 -0.55184] cmatrix=[0 | 0 0 | 0 0 0 | 0 0 0 0 ] Rg=0 Xg=0
new line.L129 bus1=b104.1.2.3.4 bus2=b130.1.2.3.4 length=0.015715 phases=4 units=km rmatrix=[1.1669 | 0.01691 1.1669 | 0.01691 0.01691 1.1669 | 0.01691 0.01691 0.01691 1.1669 ] xmatrix=[0.087981 |  -1.8917e-05 0.087981 | -1.8917e-05 -1.8917e-05 0.087981 | -1.8917e-05 -1.8917e-05 -1.8917e-05 0.087981] cmatrix=[0 | 0 0 | 0 0 0 | 0 0 0 0 ] Rg=0 Xg=0
new line.L13 bus1=b10.1.2.3.4 bus2=b14.1.2.3.4 length=0.038351 phases=4 units=km rmatrix=[0.4233 | 0.2573 0.4233 | 0.2573 0.2573 0.4233 | 0.2573 0.2573 0.2573 0.4233 ] xmatrix=[-0.17133 |  -0.23933 -0.17133 | -0.23933 -0.23933 -0.17133 | -0.23933 -0.23933 -0.23933 -0.17133] cmatrix=[0 | 0 0 | 0 0 0 | 0 0 0 0 ] Rg=0 Xg=0
new line.L130 bus1=b104.1.2.3.4 bus2=b131.1.2.3.4 length=0.0047745 phases=4 units=km rmatrix=[0.8455 | 0.5715 0.8455 | 0.5715 0.5715 0.8455 | 0.5715 0.5715 0.5715 0.8455 ] xmatrix=[-0.43853 |  -0.51153 -0.43853 | -0.51153 -0.51153 -0.43853 | -0.51153 -0.51153 -0.51153 -0.43853] cmatrix=[0 | 0 0 | 0 0 0 | 0 0 0 0 ] Rg=0 Xg=0
new line.L131 bus1=b127.1.2.3.4 bus2=b132.1.2.3.4 length=0.0027022 phases=4 units=km rmatrix=[1.7887 | 1.3197 1.7887 | 1.3197 1.3197 1.7887 | 1.3197 1.3197 1.3197 1.7887 ] xmatrix=[-0.55184 |  -0.62684 -0.55184 | -0.62684 -0.62684 -0.55184 | -0.62684 -0.62684 -0.62684 -0.55184] cmatrix=[0 | 0 0 | 0 0 0 | 0 0 0 0 ] Rg=0 Xg=0
new line.L132 bus1=b127.1.2.3.4 bus2=b133.1.2.3.4 length=0.0027022 phases=4 units=km rmatrix=[1.7887 | 1.3197 1.7887 | 1.3197 1.3197 1.7887 | 1.3197 1.3197 1.3197 1.7887 ] xmatrix=[-0.55184 |  -0.62684 -0.55184 | -0.62684 -0.62684 -0.55184 | -0.62684 -0.62684 -0.62684 -0.55184] cmatrix=[0 | 0 0 | 0 0 0 | 0 0 0 0 ] Rg=0 Xg=0
new line.L133 bus1=b132.1.2.3.4 bus2=b134.1.2.3.4 length=0.0054142 phases=4 units=km rmatrix=[1.7887 | 1.3197 1.7887 | 1.3197 1.3197 1.7887 | 1.3197 1.3197 1.3197 1.7887 ] xmatrix=[-0.55184 |  -0.62684 -0.55184 | -0.62684 -0.62684 -0.55184 | -0.62684 -0.62684 -0.62684 -0.55184] cmatrix=[0 | 0 0 | 0 0 0 | 0 0 0 0 ] Rg=0 Xg=0
new line.L134 bus1=b132.1.2.3.4 bus2=b135.1.2.3.4 length=0.00064238 phases=4 units=km rmatrix=[1.7887 | 1.3197 1.7887 | 1.3197 1.3197 1.7887 | 1.3197 1.3197 1.3197 1.7887 ] xmatrix=[-0.55184 |  -0.62684 -0.55184 | -0.62684 -0.62684 -0.55184 | -0.62684 -0.62684 -0.62684 -0.55184] cmatrix=[0 | 0 0 | 0 0 0 | 0 0 0 0 ] Rg=0 Xg=0
new line.L135 bus1=b131.1.2.3.4 bus2=b136.1.2.3.4 length=0.014004 phases=4 units=km rmatrix=[1.1669 | 0.01691 1.1669 | 0.01691 0.01691 1.1669 | 0.01691 0.01691 0.01691 1.1669 ] xmatrix=[0.087981 |  -1.8917e-05 0.087981 | -1.8917e-05 -1.8917e-05 0.087981 | -1.8917e-05 -1.8917e-05 -1.8917e-05 0.087981] cmatrix=[0 | 0 0 | 0 0 0 | 0 0 0 0 ] Rg=0 Xg=0
new line.L136 bus1=b131.1.2.3.4 bus2=b137.1.2.3.4 length=0.009089 phases=4 units=km rmatrix=[0.8455 | 0.5715 0.8455 | 0.5715 0.5715 0.8455 | 0.5715 0.5715 0.5715 0.8455 ] xmatrix=[-0.43853 |  -0.51153 -0.43853 | -0.51153 -0.51153 -0.43853 | -0.51153 -0.51153 -0.51153 -0.43853] cmatrix=[0 | 0 0 | 0 0 0 | 0 0 0 0 ] Rg=0 Xg=0
new line.L137 bus1=b134.1.2.3.4 bus2=b138.1.2.3.4 length=0.0048283 phases=4 units=km rmatrix=[1.7887 | 1.3197 1.7887 | 1.3197 1.3197 1.7887 | 1.3197 1.3197 1.3197 1.7887 ] xmatrix=[-0.55184 |  -0.62684 -0.55184 | -0.62684 -0.62684 -0.55184 | -0.62684 -0.62684 -0.62684 -0.55184] cmatrix=[0 | 0 0 | 0 0 0 | 0 0 0 0 ] Rg=0 Xg=0
new line.L138 bus1=b134.1.2.3.4 bus2=b139.1.2.3.4 length=0.0048283 phases=4 units=km rmatrix=[1.7887 | 1.3197 1.7887 | 1.3197 1.3197 1.7887 | 1.3197 1.3197 1.3197 1.7887 ] xmatrix=[-0.55184 |  -0.62684 -0.55184 | -0.62684 -0.62684 -0.55184 | -0.62684 -0.62684 -0.62684 -0.55184] cmatrix=[0 | 0 0 | 0 0 0 | 0 0 0 0 ] Rg=0 Xg=0
new line.L139 bus1=b134.1.2.3.4 bus2=b140.1.2.3.4 length=0.0047719 phases=4 units=km rmatrix=[1.7887 | 1.3197 1.7887 | 1.3197 1.3197 1.7887 | 1.3197 1.3197 1.3197 1.7887 ] xmatrix=[-0.55184 |  -0.62684 -0.55184 | -0.62684 -0.62684 -0.55184 | -0.62684 -0.62684 -0.62684 -0.55184] cmatrix=[0 | 0 0 | 0 0 0 | 0 0 0 0 ] Rg=0 Xg=0
new line.L14 bus1=b13.1.2.3.4 bus2=b15.1.2.3.4 length=0.0033548 phases=4 units=km rmatrix=[1.6954 | 1.2494 1.6954 | 1.2494 1.2494 1.6954 | 1.2494 1.2494 1.2494 1.6954 ] xmatrix=[-0.5404 |  -0.6114 -0.5404 | -0.6114 -0.6114 -0.5404 | -0.6114 -0.6114 -0.6114 -0.5404] cmatrix=[0 | 0 0 | 0 0 0 | 0 0 0 0 ] Rg=0 Xg=0
new line.L140 bus1=b135.1.2.3.4 bus2=b141.1.2.3.4 length=0.01441 phases=4 units=km rmatrix=[1.1669 | 0.01691 1.1669 | 0.01691 0.01691 1.1669 | 0.01691 0.01691 0.01691 1.1669 ] xmatrix=[0.087981 |  -1.8917e-05 0.087981 | -1.8917e-05 -1.8917e-05 0.087981 | -1.8917e-05 -1.8917e-05 -1.8917e-05 0.087981] cmatrix=[0 | 0 0 | 0 0 0 | 0 0 0 0 ] Rg=0 Xg=0
new line.L141 bus1=b135.1.2.3.4 bus2=b142.1.2.3.4 length=0.011664 phases=4 units=km rmatrix=[1.1669 | 0.01691 1.1669 | 0.01691 0.01691 1.1669 | 0.01691 0.01691 0.01691 1.1669 ] xmatrix=[0.087981 |  -1.8917e-05 0.087981 | -1.8917e-05 -1.8917e-05 0.087981 | -1.8917e-05 -1.8917e-05 -1.8917e-05 0.087981] cmatrix=[0 | 0 0 | 0 0 0 | 0 0 0 0 ] Rg=0 Xg=0
new line.L142 bus1=b138.1.2.3.4 bus2=b143.1.2.3.4 length=0.016051 phases=4 units=km rmatrix=[1.257 | 0 1.257 | 0 0 1.257 | 0 0 0 1.257 ] xmatrix=[0.085 |  1.3878e-17 0.085 | 1.3878e-17 1.3878e-17 0.085 | 1.3878e-17 1.3878e-17 1.3878e-17 0.085] cmatrix=[0 | 0 0 | 0 0 0 | 0 0 0 0 ] Rg=0 Xg=0
new line.L143 bus1=b138.1.2.3.4 bus2=b144.1.2.3.4 length=0.0031088 phases=4 units=km rmatrix=[1.7887 | 1.3197 1.7887 | 1.3197 1.3197 1.7887 | 1.3197 1.3197 1.3197 1.7887 ] xmatrix=[-0.55184 |  -0.62684 -0.55184 | -0.62684 -0.62684 -0.55184 | -0.62684 -0.62684 -0.62684 -0.55184] cmatrix=[0 | 0 0 | 0 0 0 | 0 0 0 0 ] Rg=0 Xg=0
new line.L144 bus1=b138.1.2.3.4 bus2=b145.1.2.3.4 length=0.0031088 phases=4 units=km rmatrix=[1.7887 | 1.3197 1.7887 | 1.3197 1.3197 1.7887 | 1.3197 1.3197 1.3197 1.7887 ] xmatrix=[-0.55184 |  -0.62684 -0.55184 | -0.62684 -0.62684 -0.55184 | -0.62684 -0.62684 -0.62684 -0.55184] cmatrix=[0 | 0 0 | 0 0 0 | 0 0 0 0 ] Rg=0 Xg=0
new line.L145 bus1=b137.1.2.3.4 bus2=b146.1.2.3.4 length=0.013769 phases=4 units=km rmatrix=[1.1669 | 0.01691 1.1669 | 0.01691 0.01691 1.1669 | 0.01691 0.01691 0.01691 1.1669 ] xmatrix=[0.087981 |  -1.8917e-05 0.087981 | -1.8917e-05 -1.8917e-05 0.087981 | -1.8917e-05 -1.8917e-05 -1.8917e-05 0.087981] cmatrix=[0 | 0 0 | 0 0 0 | 0 0 0 0 ] Rg=0 Xg=0
new line.L146 bus1=b137.1.2.3.4 bus2=b147.1.2.3.4 length=0.0027011 phases=4 units=km rmatrix=[0.8455 | 0.5715 0.8455 | 0.5715 0.5715 0.8455 | 0.5715 0.5715 0.5715 0.8455 ] xmatrix=[-0.43853 |  -0.51153 -0.43853 | -0.51153 -0.51153 -0.43853 | -0.51153 -0.51153 -0.51153 -0.43853] cmatrix=[0 | 0 0 | 0 0 0 | 0 0 0 0 ] Rg=0 Xg=0
new line.L147 bus1=b124.1.2.3.4 bus2=b148.1.2.3.4 length=0.0060249 phases=4 units=km rmatrix=[1.1669 | 0.01691 1.1669 | 0.01691 0.01691 1.1669 | 0.01691 0.01691 0.01691 1.1669 ] xmatrix=[0.087981 |  -1.8917e-05 0.087981 | -1.8917e-05 -1.8917e-05 0.087981 | -1.8917e-05 -1.8917e-05 -1.8917e-05 0.087981] cmatrix=[0 | 0 0 | 0 0 0 | 0 0 0 0 ] Rg=0 Xg=0
new line.L148 bus1=b124.1.2.3.4 bus2=b149.1.2.3.4 length=0.0053466 phases=4 units=km rmatrix=[1.1669 | 0.01691 1.1669 | 0.01691 0.01691 1.1669 | 0.01691 0.01691 0.01691 1.1669 ] xmatrix=[0.087981 |  -1.8917e-05 0.087981 | -1.8917e-05 -1.8917e-05 0.087981 | -1.8917e-05 -1.8917e-05 -1.8917e-05 0.087981] cmatrix=[0 | 0 0 | 0 0 0 | 0 0 0 0 ] Rg=0 Xg=0
new line.L149 bus1=b147.1.2.3.4 bus2=b150.1.2.3.4 length=0.01519 phases=4 units=km rmatrix=[1.1669 | 0.01691 1.1669 | 0.01691 0.01691 1.1669 | 0.01691 0.01691 0.01691 1.1669 ] xmatrix=[0.087981 |  -1.8917e-05 0.087981 | -1.8917e-05 -1.8917e-05 0.087981 | -1.8917e-05 -1.8917e-05 -1.8917e-05 0.087981] cmatrix=[0 | 0 0 | 0 0 0 | 0 0 0 0 ] Rg=0 Xg=0
new line.L15 bus1=b13.1.2.3.4 bus2=b16.1.2.3.4 length=0.001278 phases=4 units=km rmatrix=[1.6954 | 1.2494 1.6954 | 1.2494 1.2494 1.6954 | 1.2494 1.2494 1.2494 1.6954 ] xmatrix=[-0.5404 |  -0.6114 -0.5404 | -0.6114 -0.6114 -0.5404 | -0.6114 -0.6114 -0.6114 -0.5404] cmatrix=[0 | 0 0 | 0 0 0 | 0 0 0 0 ] Rg=0 Xg=0
new line.L150 bus1=b147.1.2.3.4 bus2=b151.1.2.3.4 length=0.0096296 phases=4 units=km rmatrix=[0.8455 | 0.5715 0.8455 | 0.5715 0.5715 0.8455 | 0.5715 0.5715 0.5715 0.8455 ] xmatrix=[-0.43853 |  -0.51153 -0.43853 | -0.51153 -0.51153 -0.43853 | -0.51153 -0.51153 -0.51153 -0.43853] cmatrix=[0 | 0 0 | 0 0 0 | 0 0 0 0 ] Rg=0 Xg=0
new line.L151 bus1=b151.1.2.3.4 bus2=b152.1.2.3.4 length=0.0081445 phases=4 units=km rmatrix=[1.1669 | 0.01691 1.1669 | 0.01691 0.01691 1.1669 | 0.01691 0.01691 0.01691 1.1669 ] xmatrix=[0.087981 |  -1.8917e-05 0.087981 | -1.8917e-05 -1.8917e-05 0.087981 | -1.8917e-05 -1.8917e-05 -1.8917e-05 0.087981] cmatrix=[0 | 0 0 | 0 0 0 | 0 0 0 0 ] Rg=0 Xg=0
new line.L152 bus1=b151.1.2.3.4 bus2=b153.1.2.3.4 length=0.010525 phases=4 units=km rmatrix=[0.8455 | 0.5715 0.8455 | 0.5715 0.5715 0.8455 | 0.5715 0.5715 0.5715 0.8455 ] xmatrix=[-0.43853 |  -0.51153 -0.43853 | -0.51153 -0.51153 -0.43853 | -0.51153 -0.51153 -0.51153 -0.43853] cmatrix=[0 | 0 0 | 0 0 0 | 0 0 0 0 ] Rg=0 Xg=0
new line.L153 bus1=b152.1.2.3.4 bus2=b154.1.2.3.4 length=0.0073579 phases=4 units=km rmatrix=[1.1669 | 0.01691 1.1669 | 0.01691 0.01691 1.1669 | 0.01691 0.01691 0.01691 1.1669 ] xmatrix=[0.087981 |  -1.8917e-05 0.087981 | -1.8917e-05 -1.8917e-05 0.087981 | -1.8917e-05 -1.8917e-05 -1.8917e-05 0.087981] cmatrix=[0 | 0 0 | 0 0 0 | 0 0 0 0 ] Rg=0 Xg=0
new line.L154 bus1=b152.1.2.3.4 bus2=b155.1.2.3.4 length=0.0064573 phases=4 units=km rmatrix=[1.1669 | 0.01691 1.1669 | 0.01691 0.01691 1.1669 | 0.01691 0.01691 0.01691 1.1669 ] xmatrix=[0.087981 |  -1.8917e-05 0.087981 | -1.8917e-05 -1.8917e-05 0.087981 | -1.8917e-05 -1.8917e-05 -1.8917e-05 0.087981] cmatrix=[0 | 0 0 | 0 0 0 | 0 0 0 0 ] Rg=0 Xg=0
new line.L155 bus1=b153.1.2.3.4 bus2=b156.1.2.3.4 length=0.014975 phases=4 units=km rmatrix=[1.1669 | 0.01691 1.1669 | 0.01691 0.01691 1.1669 | 0.01691 0.01691 0.01691 1.1669 ] xmatrix=[0.087981 |  -1.8917e-05 0.087981 | -1.8917e-05 -1.8917e-05 0.087981 | -1.8917e-05 -1.8917e-05 -1.8917e-05 0.087981] cmatrix=[0 | 0 0 | 0 0 0 | 0 0 0 0 ] Rg=0 Xg=0
new line.L156 bus1=b153.1.2.3.4 bus2=b157.1.2.3.4 length=0.0021907 phases=4 units=km rmatrix=[0.8455 | 0.5715 0.8455 | 0.5715 0.5715 0.8455 | 0.5715 0.5715 0.5715 0.8455 ] xmatrix=[-0.43853 |  -0.51153 -0.43853 | -0.51153 -0.51153 -0.43853 | -0.51153 -0.51153 -0.51153 -0.43853] cmatrix=[0 | 0 0 | 0 0 0 | 0 0 0 0 ] Rg=0 Xg=0
new line.L157 bus1=b157.1.2.3.4 bus2=b158.1.2.3.4 length=0.0024 phases=4 units=km rmatrix=[1.7887 | 1.3197 1.7887 | 1.3197 1.3197 1.7887 | 1.3197 1.3197 1.3197 1.7887 ] xmatrix=[-0.55184 |  -0.62684 -0.55184 | -0.62684 -0.62684 -0.55184 | -0.62684 -0.62684 -0.62684 -0.55184] cmatrix=[0 | 0 0 | 0 0 0 | 0 0 0 0 ] Rg=0 Xg=0
new line.L158 bus1=b158.1.2.3.4 bus2=b159.1.2.3.4 length=0.0063308 phases=4 units=km rmatrix=[1.7887 | 1.3197 1.7887 | 1.3197 1.3197 1.7887 | 1.3197 1.3197 1.3197 1.7887 ] xmatrix=[-0.55184 |  -0.62684 -0.55184 | -0.62684 -0.62684 -0.55184 | -0.62684 -0.62684 -0.62684 -0.55184] cmatrix=[0 | 0 0 | 0 0 0 | 0 0 0 0 ] Rg=0 Xg=0
new line.L159 bus1=b158.1.2.3.4 bus2=b160.1.2.3.4 length=0.0029479 phases=4 units=km rmatrix=[1.7887 | 1.3197 1.7887 | 1.3197 1.3197 1.7887 | 1.3197 1.3197 1.3197 1.7887 ] xmatrix=[-0.55184 |  -0.62684 -0.55184 | -0.62684 -0.62684 -0.55184 | -0.62684 -0.62684 -0.62684 -0.55184] cmatrix=[0 | 0 0 | 0 0 0 | 0 0 0 0 ] Rg=0 Xg=0
new line.L16 bus1=b15.1.2.3.4 bus2=b17.1.2.3.4 length=0.013376 phases=4 units=km rmatrix=[1.6954 | 1.2494 1.6954 | 1.2494 1.2494 1.6954 | 1.2494 1.2494 1.2494 1.6954 ] xmatrix=[-0.5404 |  -0.6114 -0.5404 | -0.6114 -0.6114 -0.5404 | -0.6114 -0.6114 -0.6114 -0.5404] cmatrix=[0 | 0 0 | 0 0 0 | 0 0 0 0 ] Rg=0 Xg=0
new line.L160 bus1=b159.1.2.3.4 bus2=b161.1.2.3.4 length=0.015246 phases=4 units=km rmatrix=[1.7887 | 1.3197 1.7887 | 1.3197 1.3197 1.7887 | 1.3197 1.3197 1.3197 1.7887 ] xmatrix=[-0.55184 |  -0.62684 -0.55184 | -0.62684 -0.62684 -0.55184 | -0.62684 -0.62684 -0.62684 -0.55184] cmatrix=[0 | 0 0 | 0 0 0 | 0 0 0 0 ] Rg=0 Xg=0
new line.L161 bus1=b159.1.2.3.4 bus2=b162.1.2.3.4 length=0.012748 phases=4 units=km rmatrix=[1.1669 | 0.01691 1.1669 | 0.01691 0.01691 1.1669 | 0.01691 0.01691 0.01691 1.1669 ] xmatrix=[0.087981 |  -1.8917e-05 0.087981 | -1.8917e-05 -1.8917e-05 0.087981 | -1.8917e-05 -1.8917e-05 -1.8917e-05 0.087981] cmatrix=[0 | 0 0 | 0 0 0 | 0 0 0 0 ] Rg=0 Xg=0
new line.L162 bus1=b161.1.2.3.4 bus2=b163.1.2.3.4 length=0.017007 phases=4 units=km rmatrix=[1.7887 | 1.3197 1.7887 | 1.3197 1.3197 1.7887 | 1.3197 1.3197 1.3197 1.7887 ] xmatrix=[-0.55184 |  -0.62684 -0.55184 | -0.62684 -0.62684 -0.55184 | -0.62684 -0.62684 -0.62684 -0.55184] cmatrix=[0 | 0 0 | 0 0 0 | 0 0 0 0 ] Rg=0 Xg=0
new line.L163 bus1=b161.1.2.3.4 bus2=b164.1.2.3.4 length=0.01126 phases=4 units=km rmatrix=[1.1669 | 0.01691 1.1669 | 0.01691 0.01691 1.1669 | 0.01691 0.01691 0.01691 1.1669 ] xmatrix=[0.087981 |  -1.8917e-05 0.087981 | -1.8917e-05 -1.8917e-05 0.087981 | -1.8917e-05 -1.8917e-05 -1.8917e-05 0.087981] cmatrix=[0 | 0 0 | 0 0 0 | 0 0 0 0 ] Rg=0 Xg=0
new line.L164 bus1=b164.1.2.3.4 bus2=b165.1.2.3.4 length=0.0067778 phases=4 units=km rmatrix=[1.1669 | 0.01691 1.1669 | 0.01691 0.01691 1.1669 | 0.01691 0.01691 0.01691 1.1669 ] xmatrix=[0.087981 |  -1.8917e-05 0.087981 | -1.8917e-05 -1.8917e-05 0.087981 | -1.8917e-05 -1.8917e-05 -1.8917e-05 0.087981] cmatrix=[0 | 0 0 | 0 0 0 | 0 0 0 0 ] Rg=0 Xg=0
new line.L165 bus1=b164.1.2.3.4 bus2=b166.1.2.3.4 length=0.0057562 phases=4 units=km rmatrix=[1.1669 | 0.01691 1.1669 | 0.01691 0.01691 1.1669 | 0.01691 0.01691 0.01691 1.1669 ] xmatrix=[0.087981 |  -1.8917e-05 0.087981 | -1.8917e-05 -1.8917e-05 0.087981 | -1.8917e-05 -1.8917e-05 -1.8917e-05 0.087981] cmatrix=[0 | 0 0 | 0 0 0 | 0 0 0 0 ] Rg=0 Xg=0
new line.L166 bus1=b163.1.2.3.4 bus2=b167.1.2.3.4 length=0.01946 phases=4 units=km rmatrix=[1.7887 | 1.3197 1.7887 | 1.3197 1.3197 1.7887 | 1.3197 1.3197 1.3197 1.7887 ] xmatrix=[-0.55184 |  -0.62684 -0.55184 | -0.62684 -0.62684 -0.55184 | -0.62684 -0.62684 -0.62684 -0.55184] cmatrix=[0 | 0 0 | 0 0 0 | 0 0 0 0 ] Rg=0 Xg=0
new line.L167 bus1=b163.1.2.3.4 bus2=b168.1.2.3.4 length=0.010873 phases=4 units=km rmatrix=[1.1669 | 0.01691 1.1669 | 0.01691 0.01691 1.1669 | 0.01691 0.01691 0.01691 1.1669 ] xmatrix=[0.087981 |  -1.8917e-05 0.087981 | -1.8917e-05 -1.8917e-05 0.087981 | -1.8917e-05 -1.8917e-05 -1.8917e-05 0.087981] cmatrix=[0 | 0 0 | 0 0 0 | 0 0 0 0 ] Rg=0 Xg=0
new line.L168 bus1=b168.1.2.3.4 bus2=b169.1.2.3.4 length=0.007129 phases=4 units=km rmatrix=[1.1669 | 0.01691 1.1669 | 0.01691 0.01691 1.1669 | 0.01691 0.01691 0.01691 1.1669 ] xmatrix=[0.087981 |  -1.8917e-05 0.087981 | -1.8917e-05 -1.8917e-05 0.087981 | -1.8917e-05 -1.8917e-05 -1.8917e-05 0.087981] cmatrix=[0 | 0 0 | 0 0 0 | 0 0 0 0 ] Rg=0 Xg=0
new line.L169 bus1=b168.1.2.3.4 bus2=b170.1.2.3.4 length=0.0056581 phases=4 units=km rmatrix=[1.1669 | 0.01691 1.1669 | 0.01691 0.01691 1.1669 | 0.01691 0.01691 0.01691 1.1669 ] xmatrix=[0.087981 |  -1.8917e-05 0.087981 | -1.8917e-05 -1.8917e-05 0.087981 | -1.8917e-05 -1.8917e-05 -1.8917e-05 0.087981] cmatrix=[0 | 0 0 | 0 0 0 | 0 0 0 0 ] Rg=0 Xg=0
new line.L17 bus1=b15.1.2.3.4 bus2=b18.1.2.3.4 length=0.0082583 phases=4 units=km rmatrix=[1.1669 | 0.01691 1.1669 | 0.01691 0.01691 1.1669 | 0.01691 0.01691 0.01691 1.1669 ] xmatrix=[0.087981 |  -1.8917e-05 0.087981 | -1.8917e-05 -1.8917e-05 0.087981 | -1.8917e-05 -1.8917e-05 -1.8917e-05 0.087981] cmatrix=[0 | 0 0 | 0 0 0 | 0 0 0 0 ] Rg=0 Xg=0
new line.L170 bus1=b150.1.2.3.4 bus2=b171.1.2.3.4 length=0.0022918 phases=4 units=km rmatrix=[1.1669 | 0.01691 1.1669 | 0.01691 0.01691 1.1669 | 0.01691 0.01691 0.01691 1.1669 ] xmatrix=[0.087981 |  -1.8917e-05 0.087981 | -1.8917e-05 -1.8917e-05 0.087981 | -1.8917e-05 -1.8917e-05 -1.8917e-05 0.087981] cmatrix=[0 | 0 0 | 0 0 0 | 0 0 0 0 ] Rg=0 Xg=0
new line.L171 bus1=b150.1.2.3.4 bus2=b172.1.2.3.4 length=0.0097761 phases=4 units=km rmatrix=[1.1669 | 0.01691 1.1669 | 0.01691 0.01691 1.1669 | 0.01691 0.01691 0.01691 1.1669 ] xmatrix=[0.087981 |  -1.8917e-05 0.087981 | -1.8917e-05 -1.8917e-05 0.087981 | -1.8917e-05 -1.8917e-05 -1.8917e-05 0.087981] cmatrix=[0 | 0 0 | 0 0 0 | 0 0 0 0 ] Rg=0 Xg=0
new line.L172 bus1=b167.1.2.3.4 bus2=b173.1.2.3.4 length=0.010772 phases=4 units=km rmatrix=[1.1669 | 0.01691 1.1669 | 0.01691 0.01691 1.1669 | 0.01691 0.01691 0.01691 1.1669 ] xmatrix=[0.087981 |  -1.8917e-05 0.087981 | -1.8917e-05 -1.8917e-05 0.087981 | -1.8917e-05 -1.8917e-05 -1.8917e-05 0.087981] cmatrix=[0 | 0 0 | 0 0 0 | 0 0 0 0 ] Rg=0 Xg=0
new line.L173 bus1=b167.1.2.3.4 bus2=b174.1.2.3.4 length=0.0028031 phases=4 units=km rmatrix=[0.62302 | 0.30102 0.62302 | 0.30102 0.30102 0.62302 | 0.30102 0.30102 0.30102 0.62302 ] xmatrix=[0.03408 |  -0.03992 0.03408 | -0.03992 -0.03992 0.03408 | -0.03992 -0.03992 -0.03992 0.03408] cmatrix=[0 | 0 0 | 0 0 0 | 0 0 0 0 ] Rg=0 Xg=0
new line.L174 bus1=b174.1.2.3.4 bus2=b175.1.2.3.4 length=0.0030749 phases=4 units=km rmatrix=[1.7887 | 1.3197 1.7887 | 1.3197 1.3197 1.7887 | 1.3197 1.3197 1.3197 1.7887 ] xmatrix=[-0.55184 |  -0.62684 -0.55184 | -0.62684 -0.62684 -0.55184 | -0.62684 -0.62684 -0.62684 -0.55184] cmatrix=[0 | 0 0 | 0 0 0 | 0 0 0 0 ] Rg=0 Xg=0
new line.L175 bus1=b174.1.2.3.4 bus2=b176.1.2.3.4 length=0.0030749 phases=4 units=km rmatrix=[1.7887 | 1.3197 1.7887 | 1.3197 1.3197 1.7887 | 1.3197 1.3197 1.3197 1.7887 ] xmatrix=[-0.55184 |  -0.62684 -0.55184 | -0.62684 -0.62684 -0.55184 | -0.62684 -0.62684 -0.62684 -0.55184] cmatrix=[0 | 0 0 | 0 0 0 | 0 0 0 0 ] Rg=0 Xg=0
new line.L176 bus1=b175.1.2.3.4 bus2=b177.1.2.3.4 length=0.0025782 phases=4 units=km rmatrix=[1.7887 | 1.3197 1.7887 | 1.3197 1.3197 1.7887 | 1.3197 1.3197 1.3197 1.7887 ] xmatrix=[-0.55184 |  -0.62684 -0.55184 | -0.62684 -0.62684 -0.55184 | -0.62684 -0.62684 -0.62684 -0.55184] cmatrix=[0 | 0 0 | 0 0 0 | 0 0 0 0 ] Rg=0 Xg=0
new line.L177 bus1=b175.1.2.3.4 bus2=b178.1.2.3.4 length=0.0025782 phases=4 units=km rmatrix=[1.7887 | 1.3197 1.7887 | 1.3197 1.3197 1.7887 | 1.3197 1.3197 1.3197 1.7887 ] xmatrix=[-0.55184 |  -0.62684 -0.55184 | -0.62684 -0.62684 -0.55184 | -0.62684 -0.62684 -0.62684 -0.55184] cmatrix=[0 | 0 0 | 0 0 0 | 0 0 0 0 ] Rg=0 Xg=0
new line.L178 bus1=b177.1.2.3.4 bus2=b179.1.2.3.4 length=0.0027715 phases=4 units=km rmatrix=[1.7887 | 1.3197 1.7887 | 1.3197 1.3197 1.7887 | 1.3197 1.3197 1.3197 1.7887 ] xmatrix=[-0.55184 |  -0.62684 -0.55184 | -0.62684 -0.62684 -0.55184 | -0.62684 -0.62684 -0.62684 -0.55184] cmatrix=[0 | 0 0 | 0 0 0 | 0 0 0 0 ] Rg=0 Xg=0
new line.L179 bus1=b177.1.2.3.4 bus2=b180.1.2.3.4 length=0.0027715 phases=4 units=km rmatrix=[1.7887 | 1.3197 1.7887 | 1.3197 1.3197 1.7887 | 1.3197 1.3197 1.3197 1.7887 ] xmatrix=[-0.55184 |  -0.62684 -0.55184 | -0.62684 -0.62684 -0.55184 | -0.62684 -0.62684 -0.62684 -0.55184] cmatrix=[0 | 0 0 | 0 0 0 | 0 0 0 0 ] Rg=0 Xg=0
new line.L18 bus1=b18.1.2.3.4 bus2=b19.1.2.3.4 length=0.0040366 phases=4 units=km rmatrix=[1.1669 | 0.01691 1.1669 | 0.01691 0.01691 1.1669 | 0.01691 0.01691 0.01691 1.1669 ] xmatrix=[0.087981 |  -1.8917e-05 0.087981 | -1.8917e-05 -1.8917e-05 0.087981 | -1.8917e-05 -1.8917e-05 -1.8917e-05 0.087981] cmatrix=[0 | 0 0 | 0 0 0 | 0 0 0 0 ] Rg=0 Xg=0
new line.L180 bus1=b179.1.2.3.4 bus2=b181.1.2.3.4 length=0.0022755 phases=4 units=km rmatrix=[1.7887 | 1.3197 1.7887 | 1.3197 1.3197 1.7887 | 1.3197 1.3197 1.3197 1.7887 ] xmatrix=[-0.55184 |  -0.62684 -0.55184 | -0.62684 -0.62684 -0.55184 | -0.62684 -0.62684 -0.62684 -0.55184] cmatrix=[0 | 0 0 | 0 0 0 | 0 0 0 0 ] Rg=0 Xg=0
new line.L181 bus1=b179.1.2.3.4 bus2=b182.1.2.3.4 length=0.0022755 phases=4 units=km rmatrix=[1.7887 | 1.3197 1.7887 | 1.3197 1.3197 1.7887 | 1.3197 1.3197 1.3197 1.7887 ] xmatrix=[-0.55184 |  -0.62684 -0.55184 | -0.62684 -0.62684 -0.55184 | -0.62684 -0.62684 -0.62684 -0.55184] cmatrix=[0 | 0 0 | 0 0 0 | 0 0 0 0 ] Rg=0 Xg=0
new line.L182 bus1=b181.1.2.3.4 bus2=b183.1.2.3.4 length=0.002443 phases=4 units=km rmatrix=[1.7887 | 1.3197 1.7887 | 1.3197 1.3197 1.7887 | 1.3197 1.3197 1.3197 1.7887 ] xmatrix=[-0.55184 |  -0.62684 -0.55184 | -0.62684 -0.62684 -0.55184 | -0.62684 -0.62684 -0.62684 -0.55184] cmatrix=[0 | 0 0 | 0 0 0 | 0 0 0 0 ] Rg=0 Xg=0
new line.L183 bus1=b181.1.2.3.4 bus2=b184.1.2.3.4 length=0.002443 phases=4 units=km rmatrix=[1.7887 | 1.3197 1.7887 | 1.3197 1.3197 1.7887 | 1.3197 1.3197 1.3197 1.7887 ] xmatrix=[-0.55184 |  -0.62684 -0.55184 | -0.62684 -0.62684 -0.55184 | -0.62684 -0.62684 -0.62684 -0.55184] cmatrix=[0 | 0 0 | 0 0 0 | 0 0 0 0 ] Rg=0 Xg=0
new line.L184 bus1=b183.1.2.3.4 bus2=b185.1.2.3.4 length=0.010125 phases=4 units=km rmatrix=[1.257 | 0 1.257 | 0 0 1.257 | 0 0 0 1.257 ] xmatrix=[0.085 |  1.3878e-17 0.085 | 1.3878e-17 1.3878e-17 0.085 | 1.3878e-17 1.3878e-17 1.3878e-17 0.085] cmatrix=[0 | 0 0 | 0 0 0 | 0 0 0 0 ] Rg=0 Xg=0
new line.L185 bus1=b183.1.2.3.4 bus2=b186.1.2.3.4 length=0.0036212 phases=4 units=km rmatrix=[1.7887 | 1.3197 1.7887 | 1.3197 1.3197 1.7887 | 1.3197 1.3197 1.3197 1.7887 ] xmatrix=[-0.55184 |  -0.62684 -0.55184 | -0.62684 -0.62684 -0.55184 | -0.62684 -0.62684 -0.62684 -0.55184] cmatrix=[0 | 0 0 | 0 0 0 | 0 0 0 0 ] Rg=0 Xg=0
new line.L186 bus1=b183.1.2.3.4 bus2=b187.1.2.3.4 length=0.0036212 phases=4 units=km rmatrix=[1.7887 | 1.3197 1.7887 | 1.3197 1.3197 1.7887 | 1.3197 1.3197 1.3197 1.7887 ] xmatrix=[-0.55184 |  -0.62684 -0.55184 | -0.62684 -0.62684 -0.55184 | -0.62684 -0.62684 -0.62684 -0.55184] cmatrix=[0 | 0 0 | 0 0 0 | 0 0 0 0 ] Rg=0 Xg=0
new line.L187 bus1=b186.1.2.3.4 bus2=b188.1.2.3.4 length=0.004364 phases=4 units=km rmatrix=[1.7887 | 1.3197 1.7887 | 1.3197 1.3197 1.7887 | 1.3197 1.3197 1.3197 1.7887 ] xmatrix=[-0.55184 |  -0.62684 -0.55184 | -0.62684 -0.62684 -0.55184 | -0.62684 -0.62684 -0.62684 -0.55184] cmatrix=[0 | 0 0 | 0 0 0 | 0 0 0 0 ] Rg=0 Xg=0
new line.L188 bus1=b186.1.2.3.4 bus2=b189.1.2.3.4 length=0.004364 phases=4 units=km rmatrix=[1.7887 | 1.3197 1.7887 | 1.3197 1.3197 1.7887 | 1.3197 1.3197 1.3197 1.7887 ] xmatrix=[-0.55184 |  -0.62684 -0.55184 | -0.62684 -0.62684 -0.55184 | -0.62684 -0.62684 -0.62684 -0.55184] cmatrix=[0 | 0 0 | 0 0 0 | 0 0 0 0 ] Rg=0 Xg=0
new line.L189 bus1=b188.1.2.3.4 bus2=b190.1.2.3.4 length=0.0068621 phases=4 units=km rmatrix=[1.7887 | 1.3197 1.7887 | 1.3197 1.3197 1.7887 | 1.3197 1.3197 1.3197 1.7887 ] xmatrix=[-0.55184 |  -0.62684 -0.55184 | -0.62684 -0.62684 -0.55184 | -0.62684 -0.62684 -0.62684 -0.55184] cmatrix=[0 | 0 0 | 0 0 0 | 0 0 0 0 ] Rg=0 Xg=0
new line.L19 bus1=b18.1.2.3.4 bus2=b20.1.2.3.4 length=0.0040366 phases=4 units=km rmatrix=[1.1669 | 0.01691 1.1669 | 0.01691 0.01691 1.1669 | 0.01691 0.01691 0.01691 1.1669 ] xmatrix=[0.087981 |  -1.8917e-05 0.087981 | -1.8917e-05 -1.8917e-05 0.087981 | -1.8917e-05 -1.8917e-05 -1.8917e-05 0.087981] cmatrix=[0 | 0 0 | 0 0 0 | 0 0 0 0 ] Rg=0 Xg=0
new line.L190 bus1=b188.1.2.3.4 bus2=b191.1.2.3.4 length=0.0068621 phases=4 units=km rmatrix=[1.7887 | 1.3197 1.7887 | 1.3197 1.3197 1.7887 | 1.3197 1.3197 1.3197 1.7887 ] xmatrix=[-0.55184 |  -0.62684 -0.55184 | -0.62684 -0.62684 -0.55184 | -0.62684 -0.62684 -0.62684 -0.55184] cmatrix=[0 | 0 0 | 0 0 0 | 0 0 0 0 ] Rg=0 Xg=0
new line.L191 bus1=b171.1.2.3.4 bus2=b192.1.2.3.4 length=0.00282 phases=4 units=km rmatrix=[1.1669 | 0.01691 1.1669 | 0.01691 0.01691 1.1669 | 0.01691 0.01691 0.01691 1.1669 ] xmatrix=[0.087981 |  -1.8917e-05 0.087981 | -1.8917e-05 -1.8917e-05 0.087981 | -1.8917e-05 -1.8917e-05 -1.8917e-05 0.087981] cmatrix=[0 | 0 0 | 0 0 0 | 0 0 0 0 ] Rg=0 Xg=0
new line.L192 bus1=b171.1.2.3.4 bus2=b193.1.2.3.4 length=0.0075091 phases=4 units=km rmatrix=[1.1669 | 0.01691 1.1669 | 0.01691 0.01691 1.1669 | 0.01691 0.01691 0.01691 1.1669 ] xmatrix=[0.087981 |  -1.8917e-05 0.087981 | -1.8917e-05 -1.8917e-05 0.087981 | -1.8917e-05 -1.8917e-05 -1.8917e-05 0.087981] cmatrix=[0 | 0 0 | 0 0 0 | 0 0 0 0 ] Rg=0 Xg=0
new line.L193 bus1=b190.1.2.3.4 bus2=b194.1.2.3.4 length=0.0027888 phases=4 units=km rmatrix=[1.7887 | 1.3197 1.7887 | 1.3197 1.3197 1.7887 | 1.3197 1.3197 1.3197 1.7887 ] xmatrix=[-0.55184 |  -0.62684 -0.55184 | -0.62684 -0.62684 -0.55184 | -0.62684 -0.62684 -0.62684 -0.55184] cmatrix=[0 | 0 0 | 0 0 0 | 0 0 0 0 ] Rg=0 Xg=0
new line.L194 bus1=b190.1.2.3.4 bus2=b195.1.2.3.4 length=0.0027888 phases=4 units=km rmatrix=[1.7887 | 1.3197 1.7887 | 1.3197 1.3197 1.7887 | 1.3197 1.3197 1.3197 1.7887 ] xmatrix=[-0.55184 |  -0.62684 -0.55184 | -0.62684 -0.62684 -0.55184 | -0.62684 -0.62684 -0.62684 -0.55184] cmatrix=[0 | 0 0 | 0 0 0 | 0 0 0 0 ] Rg=0 Xg=0
new line.L195 bus1=b194.1.2.3.4 bus2=b196.1.2.3.4 length=0.0017373 phases=4 units=km rmatrix=[1.7887 | 1.3197 1.7887 | 1.3197 1.3197 1.7887 | 1.3197 1.3197 1.3197 1.7887 ] xmatrix=[-0.55184 |  -0.62684 -0.55184 | -0.62684 -0.62684 -0.55184 | -0.62684 -0.62684 -0.62684 -0.55184] cmatrix=[0 | 0 0 | 0 0 0 | 0 0 0 0 ] Rg=0 Xg=0
new line.L196 bus1=b194.1.2.3.4 bus2=b197.1.2.3.4 length=0.0017373 phases=4 units=km rmatrix=[1.7887 | 1.3197 1.7887 | 1.3197 1.3197 1.7887 | 1.3197 1.3197 1.3197 1.7887 ] xmatrix=[-0.55184 |  -0.62684 -0.55184 | -0.62684 -0.62684 -0.55184 | -0.62684 -0.62684 -0.62684 -0.55184] cmatrix=[0 | 0 0 | 0 0 0 | 0 0 0 0 ] Rg=0 Xg=0
new line.L197 bus1=b185.1.2.3.4 bus2=b198.1.2.3.4 length=0.0093389 phases=4 units=km rmatrix=[1.257 | 0 1.257 | 0 0 1.257 | 0 0 0 1.257 ] xmatrix=[0.085 |  1.3878e-17 0.085 | 1.3878e-17 1.3878e-17 0.085 | 1.3878e-17 1.3878e-17 1.3878e-17 0.085] cmatrix=[0 | 0 0 | 0 0 0 | 0 0 0 0 ] Rg=0 Xg=0
new line.L198 bus1=b185.1.2.3.4 bus2=b199.1.2.3.4 length=0.0075084 phases=4 units=km rmatrix=[1.257 | 0 1.257 | 0 0 1.257 | 0 0 0 1.257 ] xmatrix=[0.085 |  1.3878e-17 0.085 | 1.3878e-17 1.3878e-17 0.085 | 1.3878e-17 1.3878e-17 1.3878e-17 0.085] cmatrix=[0 | 0 0 | 0 0 0 | 0 0 0 0 ] Rg=0 Xg=0
new line.L199 bus1=b196.1.2.3.4 bus2=b200.1.2.3.4 length=0.0012 phases=4 units=km rmatrix=[1.7887 | 1.3197 1.7887 | 1.3197 1.3197 1.7887 | 1.3197 1.3197 1.3197 1.7887 ] xmatrix=[-0.55184 |  -0.62684 -0.55184 | -0.62684 -0.62684 -0.55184 | -0.62684 -0.62684 -0.62684 -0.55184] cmatrix=[0 | 0 0 | 0 0 0 | 0 0 0 0 ] Rg=0 Xg=0
new line.L2 bus1=b2.1.2.3.4 bus2=b3.1.2.3.4 length=0.0027735 phases=4 units=km rmatrix=[3.97 | 0 3.97 | 0 0 3.97 | 0 0 0 3.97 ] xmatrix=[0.099 |  1.3878e-17 0.099 | 1.3878e-17 1.3878e-17 0.099 | 1.3878e-17 1.3878e-17 1.3878e-17 0.099] cmatrix=[0 | 0 0 | 0 0 0 | 0 0 0 0 ] Rg=0 Xg=0
new line.L20 bus1=b17.1.2.3.4 bus2=b21.1.2.3.4 length=0.014675 phases=4 units=km rmatrix=[0.18885 | 0.099853 0.18885 | 0.099853 0.099853 0.18885 | 0.099853 0.099853 0.099853 0.18885 ] xmatrix=[-0.016014 |  -0.083514 -0.016014 | -0.083514 -0.083514 -0.016014 | -0.083514 -0.083514 -0.083514 -0.016014] cmatrix=[0 | 0 0 | 0 0 0 | 0 0 0 0 ] Rg=0 Xg=0
new line.L200 bus1=b196.1.2.3.4 bus2=b201.1.2.3.4 length=0.0012 phases=4 units=km rmatrix=[1.7887 | 1.3197 1.7887 | 1.3197 1.3197 1.7887 | 1.3197 1.3197 1.3197 1.7887 ] xmatrix=[-0.55184 |  -0.62684 -0.55184 | -0.62684 -0.62684 -0.55184 | -0.62684 -0.62684 -0.62684 -0.55184] cmatrix=[0 | 0 0 | 0 0 0 | 0 0 0 0 ] Rg=0 Xg=0
new line.L201 bus1=b200.1.2.3.4 bus2=b202.1.2.3.4 length=0.0010112 phases=4 units=km rmatrix=[1.7887 | 1.3197 1.7887 | 1.3197 1.3197 1.7887 | 1.3197 1.3197 1.3197 1.7887 ] xmatrix=[-0.55184 |  -0.62684 -0.55184 | -0.62684 -0.62684 -0.55184 | -0.62684 -0.62684 -0.62684 -0.55184] cmatrix=[0 | 0 0 | 0 0 0 | 0 0 0 0 ] Rg=0 Xg=0
new line.L202 bus1=b200.1.2.3.4 bus2=b203.1.2.3.4 length=0.0010112 phases=4 units=km rmatrix=[1.7887 | 1.3197 1.7887 | 1.3197 1.3197 1.7887 | 1.3197 1.3197 1.3197 1.7887 ] xmatrix=[-0.55184 |  -0.62684 -0.55184 | -0.62684 -0.62684 -0.55184 | -0.62684 -0.62684 -0.62684 -0.55184] cmatrix=[0 | 0 0 | 0 0 0 | 0 0 0 0 ] Rg=0 Xg=0
new line.L203 bus1=b173.1.2.3.4 bus2=b204.1.2.3.4 length=0.0080917 phases=4 units=km rmatrix=[1.1669 | 0.01691 1.1669 | 0.01691 0.01691 1.1669 | 0.01691 0.01691 0.01691 1.1669 ] xmatrix=[0.087981 |  -1.8917e-05 0.087981 | -1.8917e-05 -1.8917e-05 0.087981 | -1.8917e-05 -1.8917e-05 -1.8917e-05 0.087981] cmatrix=[0 | 0 0 | 0 0 0 | 0 0 0 0 ] Rg=0 Xg=0
new line.L204 bus1=b173.1.2.3.4 bus2=b205.1.2.3.4 length=0.010336 phases=4 units=km rmatrix=[0.83342 | -0.034581 0.83342 | -0.034581 -0.034581 0.83342 | -0.034581 -0.034581 -0.034581 0.83342 ] xmatrix=[0.091856 |  -0.0001444 0.091856 | -0.0001444 -0.0001444 0.091856 | -0.0001444 -0.0001444 -0.0001444 0.091856] cmatrix=[0 | 0 0 | 0 0 0 | 0 0 0 0 ] Rg=0 Xg=0
new line.L205 bus1=b162.1.2.3.4 bus2=b206.1.2.3.4 length=0.0096933 phases=4 units=km rmatrix=[1.1669 | 0.01691 1.1669 | 0.01691 0.01691 1.1669 | 0.01691 0.01691 0.01691 1.1669 ] xmatrix=[0.087981 |  -1.8917e-05 0.087981 | -1.8917e-05 -1.8917e-05 0.087981 | -1.8917e-05 -1.8917e-05 -1.8917e-05 0.087981] cmatrix=[0 | 0 0 | 0 0 0 | 0 0 0 0 ] Rg=0 Xg=0
new line.L206 bus1=b162.1.2.3.4 bus2=b207.1.2.3.4 length=0.0032587 phases=4 units=km rmatrix=[1.1669 | 0.01691 1.1669 | 0.01691 0.01691 1.1669 | 0.01691 0.01691 0.01691 1.1669 ] xmatrix=[0.087981 |  -1.8917e-05 0.087981 | -1.8917e-05 -1.8917e-05 0.087981 | -1.8917e-05 -1.8917e-05 -1.8917e-05 0.087981] cmatrix=[0 | 0 0 | 0 0 0 | 0 0 0 0 ] Rg=0 Xg=0
new line.L21 bus1=b17.1.2.3.4 bus2=b22.1.2.3.4 length=0.0087979 phases=4 units=km rmatrix=[1.6954 | 1.2494 1.6954 | 1.2494 1.2494 1.6954 | 1.2494 1.2494 1.2494 1.6954 ] xmatrix=[-0.5404 |  -0.6114 -0.5404 | -0.6114 -0.6114 -0.5404 | -0.6114 -0.6114 -0.6114 -0.5404] cmatrix=[0 | 0 0 | 0 0 0 | 0 0 0 0 ] Rg=0 Xg=0
new line.L22 bus1=b22.1.2.3.4 bus2=b23.1.2.3.4 length=0.0011056 phases=4 units=km rmatrix=[0.18885 | 0.099853 0.18885 | 0.099853 0.099853 0.18885 | 0.099853 0.099853 0.099853 0.18885 ] xmatrix=[-0.016014 |  -0.083514 -0.016014 | -0.083514 -0.083514 -0.016014 | -0.083514 -0.083514 -0.083514 -0.016014] cmatrix=[0 | 0 0 | 0 0 0 | 0 0 0 0 ] Rg=0 Xg=0
new line.L23 bus1=b22.1.2.3.4 bus2=b24.1.2.3.4 length=0.028187 phases=4 units=km rmatrix=[0.8455 | 0.5715 0.8455 | 0.5715 0.5715 0.8455 | 0.5715 0.5715 0.5715 0.8455 ] xmatrix=[-0.43853 |  -0.51153 -0.43853 | -0.51153 -0.51153 -0.43853 | -0.51153 -0.51153 -0.51153 -0.43853] cmatrix=[0 | 0 0 | 0 0 0 | 0 0 0 0 ] Rg=0 Xg=0
new line.L24 bus1=b23.1.2.3.4 bus2=b25.1.2.3.4 length=0.0033198 phases=4 units=km rmatrix=[3.97 | 0 3.97 | 0 0 3.97 | 0 0 0 3.97 ] xmatrix=[0.099 |  1.3878e-17 0.099 | 1.3878e-17 1.3878e-17 0.099 | 1.3878e-17 1.3878e-17 1.3878e-17 0.099] cmatrix=[0 | 0 0 | 0 0 0 | 0 0 0 0 ] Rg=0 Xg=0
new line.L25 bus1=b23.1.2.3.4 bus2=b26.1.2.3.4 length=0.0030671 phases=4 units=km rmatrix=[0.18885 | 0.099853 0.18885 | 0.099853 0.099853 0.18885 | 0.099853 0.099853 0.099853 0.18885 ] xmatrix=[-0.016014 |  -0.083514 -0.016014 | -0.083514 -0.083514 -0.016014 | -0.083514 -0.083514 -0.083514 -0.016014] cmatrix=[0 | 0 0 | 0 0 0 | 0 0 0 0 ] Rg=0 Xg=0
new line.L26 bus1=b26.1.2.3.4 bus2=b27.1.2.3.4 length=0.014347 phases=4 units=km rmatrix=[1.1669 | 0.01691 1.1669 | 0.01691 0.01691 1.1669 | 0.01691 0.01691 0.01691 1.1669 ] xmatrix=[0.087981 |  -1.8917e-05 0.087981 | -1.8917e-05 -1.8917e-05 0.087981 | -1.8917e-05 -1.8917e-05 -1.8917e-05 0.087981] cmatrix=[0 | 0 0 | 0 0 0 | 0 0 0 0 ] Rg=0 Xg=0
new line.L27 bus1=b26.1.2.3.4 bus2=b28.1.2.3.4 length=0.016095 phases=4 units=km rmatrix=[0.18885 | 0.099853 0.18885 | 0.099853 0.099853 0.18885 | 0.099853 0.099853 0.099853 0.18885 ] xmatrix=[-0.016014 |  -0.083514 -0.016014 | -0.083514 -0.083514 -0.016014 | -0.083514 -0.083514 -0.083514 -0.016014] cmatrix=[0 | 0 0 | 0 0 0 | 0 0 0 0 ] Rg=0 Xg=0
new line.L28 bus1=b28.1.2.3.4 bus2=b29.1.2.3.4 length=0.016332 phases=4 units=km rmatrix=[0.18885 | 0.099853 0.18885 | 0.099853 0.099853 0.18885 | 0.099853 0.099853 0.099853 0.18885 ] xmatrix=[-0.016014 |  -0.083514 -0.016014 | -0.083514 -0.083514 -0.016014 | -0.083514 -0.083514 -0.083514 -0.016014] cmatrix=[0 | 0 0 | 0 0 0 | 0 0 0 0 ] Rg=0 Xg=0
new line.L29 bus1=b28.1.2.3.4 bus2=b30.1.2.3.4 length=0.011185 phases=4 units=km rmatrix=[1.1669 | 0.01691 1.1669 | 0.01691 0.01691 1.1669 | 0.01691 0.01691 0.01691 1.1669 ] xmatrix=[0.087981 |  -1.8917e-05 0.087981 | -1.8917e-05 -1.8917e-05 0.087981 | -1.8917e-05 -1.8917e-05 -1.8917e-05 0.087981] cmatrix=[0 | 0 0 | 0 0 0 | 0 0 0 0 ] Rg=0 Xg=0
new line.L3 bus1=b2.1.2.3.4 bus2=b4.1.2.3.4 length=0.0052165 phases=4 units=km rmatrix=[1.6954 | 1.2494 1.6954 | 1.2494 1.2494 1.6954 | 1.2494 1.2494 1.2494 1.6954 ] xmatrix=[-0.5404 |  -0.6114 -0.5404 | -0.6114 -0.6114 -0.5404 | -0.6114 -0.6114 -0.6114 -0.5404] cmatrix=[0 | 0 0 | 0 0 0 | 0 0 0 0 ] Rg=0 Xg=0
new line.L30 bus1=b21.1.2.3.4 bus2=b31.1.2.3.4 length=0.018537 phases=4 units=km rmatrix=[1.1669 | 0.01691 1.1669 | 0.01691 0.01691 1.1669 | 0.01691 0.01691 0.01691 1.1669 ] xmatrix=[0.087981 |  -1.8917e-05 0.087981 | -1.8917e-05 -1.8917e-05 0.087981 | -1.8917e-05 -1.8917e-05 -1.8917e-05 0.087981] cmatrix=[0 | 0 0 | 0 0 0 | 0 0 0 0 ] Rg=0 Xg=0
new line.L31 bus1=b21.1.2.3.4 bus2=b32.1.2.3.4 length=0.0123 phases=4 units=km rmatrix=[0.18885 | 0.099853 0.18885 | 0.099853 0.099853 0.18885 | 0.099853 0.099853 0.099853 0.18885 ] xmatrix=[-0.016014 |  -0.083514 -0.016014 | -0.083514 -0.083514 -0.016014 | -0.083514 -0.083514 -0.083514 -0.016014] cmatrix=[0 | 0 0 | 0 0 0 | 0 0 0 0 ] Rg=0 Xg=0
new line.L32 bus1=b29.1.2.3.4 bus2=b33.1.2.3.4 length=0.0045059 phases=4 units=km rmatrix=[0.18885 | 0.099853 0.18885 | 0.099853 0.099853 0.18885 | 0.099853 0.099853 0.099853 0.18885 ] xmatrix=[-0.016014 |  -0.083514 -0.016014 | -0.083514 -0.083514 -0.016014 | -0.083514 -0.083514 -0.083514 -0.016014] cmatrix=[0 | 0 0 | 0 0 0 | 0 0 0 0 ] Rg=0 Xg=0
new line.L33 bus1=b29.1.2.3.4 bus2=b34.1.2.3.4 length=0.010407 phases=4 units=km rmatrix=[1.1669 | 0.01691 1.1669 | 0.01691 0.01691 1.1669 | 0.01691 0.01691 0.01691 1.1669 ] xmatrix=[0.087981 |  -1.8917e-05 0.087981 | -1.8917e-05 -1.8917e-05 0.087981 | -1.8917e-05 -1.8917e-05 -1.8917e-05 0.087981] cmatrix=[0 | 0 0 | 0 0 0 | 0 0 0 0 ] Rg=0 Xg=0
new line.L34 bus1=b32.1.2.3.4 bus2=b35.1.2.3.4 length=0.014136 phases=4 units=km rmatrix=[0.18885 | 0.099853 0.18885 | 0.099853 0.099853 0.18885 | 0.099853 0.099853 0.099853 0.18885 ] xmatrix=[-0.016014 |  -0.083514 -0.016014 | -0.083514 -0.083514 -0.016014 | -0.083514 -0.083514 -0.083514 -0.016014] cmatrix=[0 | 0 0 | 0 0 0 | 0 0 0 0 ] Rg=0 Xg=0
new line.L35 bus1=b32.1.2.3.4 bus2=b36.1.2.3.4 length=0.012448 phases=4 units=km rmatrix=[1.1669 | 0.01691 1.1669 | 0.01691 0.01691 1.1669 | 0.01691 0.01691 0.01691 1.1669 ] xmatrix=[0.087981 |  -1.8917e-05 0.087981 | -1.8917e-05 -1.8917e-05 0.087981 | -1.8917e-05 -1.8917e-05 -1.8917e-05 0.087981] cmatrix=[0 | 0 0 | 0 0 0 | 0 0 0 0 ] Rg=0 Xg=0
new line.L36 bus1=b33.1.2.3.4 bus2=b37.1.2.3.4 length=0.0032465 phases=4 units=km rmatrix=[0.18885 | 0.099853 0.18885 | 0.099853 0.099853 0.18885 | 0.099853 0.099853 0.099853 0.18885 ] xmatrix=[-0.016014 |  -0.083514 -0.016014 | -0.083514 -0.083514 -0.016014 | -0.083514 -0.083514 -0.083514 -0.016014] cmatrix=[0 | 0 0 | 0 0 0 | 0 0 0 0 ] Rg=0 Xg=0
new line.L37 bus1=b33.1.2.3.4 bus2=b38.1.2.3.4 length=0.003472 phases=4 units=km rmatrix=[0.18885 | 0.099853 0.18885 | 0.099853 0.099853 0.18885 | 0.099853 0.099853 0.099853 0.18885 ] xmatrix=[-0.016014 |  -0.083514 -0.016014 | -0.083514 -0.083514 -0.016014 | -0.083514 -0.083514 -0.083514 -0.016014] cmatrix=[0 | 0 0 | 0 0 0 | 0 0 0 0 ] Rg=0 Xg=0
new line.L38 bus1=b36.1.2.3.4 bus2=b39.1.2.3.4 length=0.0069136 phases=4 units=km rmatrix=[1.1669 | 0.01691 1.1669 | 0.01691 0.01691 1.1669 | 0.01691 0.01691 0.01691 1.1669 ] xmatrix=[0.087981 |  -1.8917e-05 0.087981 | -1.8917e-05 -1.8917e-05 0.087981 | -1.8917e-05 -1.8917e-05 -1.8917e-05 0.087981] cmatrix=[0 | 0 0 | 0 0 0 | 0 0 0 0 ] Rg=0 Xg=0
new line.L39 bus1=b36.1.2.3.4 bus2=b40.1.2.3.4 length=0.0082381 phases=4 units=km rmatrix=[1.1669 | 0.01691 1.1669 | 0.01691 0.01691 1.1669 | 0.01691 0.01691 0.01691 1.1669 ] xmatrix=[0.087981 |  -1.8917e-05 0.087981 | -1.8917e-05 -1.8917e-05 0.087981 | -1.8917e-05 -1.8917e-05 -1.8917e-05 0.087981] cmatrix=[0 | 0 0 | 0 0 0 | 0 0 0 0 ] Rg=0 Xg=0
new line.L4 bus1=b4.1.2.3.4 bus2=b5.1.2.3.4 length=0.012622 phases=4 units=km rmatrix=[1.6954 | 1.2494 1.6954 | 1.2494 1.2494 1.6954 | 1.2494 1.2494 1.2494 1.6954 ] xmatrix=[-0.5404 |  -0.6114 -0.5404 | -0.6114 -0.6114 -0.5404 | -0.6114 -0.6114 -0.6114 -0.5404] cmatrix=[0 | 0 0 | 0 0 0 | 0 0 0 0 ] Rg=0 Xg=0
new line.L40 bus1=b35.1.2.3.4 bus2=b41.1.2.3.4 length=0.018459 phases=4 units=km rmatrix=[1.1669 | 0.01691 1.1669 | 0.01691 0.01691 1.1669 | 0.01691 0.01691 0.01691 1.1669 ] xmatrix=[0.087981 |  -1.8917e-05 0.087981 | -1.8917e-05 -1.8917e-05 0.087981 | -1.8917e-05 -1.8917e-05 -1.8917e-05 0.087981] cmatrix=[0 | 0 0 | 0 0 0 | 0 0 0 0 ] Rg=0 Xg=0
new line.L41 bus1=b35.1.2.3.4 bus2=b42.1.2.3.4 length=0.0073714 phases=4 units=km rmatrix=[0.18885 | 0.099853 0.18885 | 0.099853 0.099853 0.18885 | 0.099853 0.099853 0.099853 0.18885 ] xmatrix=[-0.016014 |  -0.083514 -0.016014 | -0.083514 -0.083514 -0.016014 | -0.083514 -0.083514 -0.083514 -0.016014] cmatrix=[0 | 0 0 | 0 0 0 | 0 0 0 0 ] Rg=0 Xg=0
new line.L42 bus1=b42.1.2.3.4 bus2=b43.1.2.3.4 length=0.013622 phases=4 units=km rmatrix=[1.1669 | 0.01691 1.1669 | 0.01691 0.01691 1.1669 | 0.01691 0.01691 0.01691 1.1669 ] xmatrix=[0.087981 |  -1.8917e-05 0.087981 | -1.8917e-05 -1.8917e-05 0.087981 | -1.8917e-05 -1.8917e-05 -1.8917e-05 0.087981] cmatrix=[0 | 0 0 | 0 0 0 | 0 0 0 0 ] Rg=0 Xg=0
new line.L43 bus1=b42.1.2.3.4 bus2=b44.1.2.3.4 length=0.0011273 phases=4 units=km rmatrix=[0.18885 | 0.099853 0.18885 | 0.099853 0.099853 0.18885 | 0.099853 0.099853 0.099853 0.18885 ] xmatrix=[-0.016014 |  -0.083514 -0.016014 | -0.083514 -0.083514 -0.016014 | -0.083514 -0.083514 -0.083514 -0.016014] cmatrix=[0 | 0 0 | 0 0 0 | 0 0 0 0 ] Rg=0 Xg=0
new line.L44 bus1=b43.1.2.3.4 bus2=b45.1.2.3.4 length=0.0053022 phases=4 units=km rmatrix=[1.1669 | 0.01691 1.1669 | 0.01691 0.01691 1.1669 | 0.01691 0.01691 0.01691 1.1669 ] xmatrix=[0.087981 |  -1.8917e-05 0.087981 | -1.8917e-05 -1.8917e-05 0.087981 | -1.8917e-05 -1.8917e-05 -1.8917e-05 0.087981] cmatrix=[0 | 0 0 | 0 0 0 | 0 0 0 0 ] Rg=0 Xg=0
new line.L45 bus1=b43.1.2.3.4 bus2=b46.1.2.3.4 length=0.0053022 phases=4 units=km rmatrix=[1.1669 | 0.01691 1.1669 | 0.01691 0.01691 1.1669 | 0.01691 0.01691 0.01691 1.1669 ] xmatrix=[0.087981 |  -1.8917e-05 0.087981 | -1.8917e-05 -1.8917e-05 0.087981 | -1.8917e-05 -1.8917e-05 -1.8917e-05 0.087981] cmatrix=[0 | 0 0 | 0 0 0 | 0 0 0 0 ] Rg=0 Xg=0
new line.L46 bus1=b24.1.2.3.4 bus2=b47.1.2.3.4 length=0.014524 phases=4 units=km rmatrix=[1.1669 | 0.01691 1.1669 | 0.01691 0.01691 1.1669 | 0.01691 0.01691 0.01691 1.1669 ] xmatrix=[0.087981 |  -1.8917e-05 0.087981 | -1.8917e-05 -1.8917e-05 0.087981 | -1.8917e-05 -1.8917e-05 -1.8917e-05 0.087981] cmatrix=[0 | 0 0 | 0 0 0 | 0 0 0 0 ] Rg=0 Xg=0
new line.L47 bus1=b24.1.2.3.4 bus2=b48.1.2.3.4 length=0.0040696 phases=4 units=km rmatrix=[0.8455 | 0.5715 0.8455 | 0.5715 0.5715 0.8455 | 0.5715 0.5715 0.5715 0.8455 ] xmatrix=[-0.43853 |  -0.51153 -0.43853 | -0.51153 -0.51153 -0.43853 | -0.51153 -0.51153 -0.51153 -0.43853] cmatrix=[0 | 0 0 | 0 0 0 | 0 0 0 0 ] Rg=0 Xg=0
new line.L48 bus1=b30.1.2.3.4 bus2=b49.1.2.3.4 length=0.0068846 phases=4 units=km rmatrix=[1.1669 | 0.01691 1.1669 | 0.01691 0.01691 1.1669 | 0.01691 0.01691 0.01691 1.1669 ] xmatrix=[0.087981 |  -1.8917e-05 0.087981 | -1.8917e-05 -1.8917e-05 0.087981 | -1.8917e-05 -1.8917e-05 -1.8917e-05 0.087981] cmatrix=[0 | 0 0 | 0 0 0 | 0 0 0 0 ] Rg=0 Xg=0
new line.L49 bus1=b30.1.2.3.4 bus2=b50.1.2.3.4 length=0.0048022 phases=4 units=km rmatrix=[1.1669 | 0.01691 1.1669 | 0.01691 0.01691 1.1669 | 0.01691 0.01691 0.01691 1.1669 ] xmatrix=[0.087981 |  -1.8917e-05 0.087981 | -1.8917e-05 -1.8917e-05 0.087981 | -1.8917e-05 -1.8917e-05 -1.8917e-05 0.087981] cmatrix=[0 | 0 0 | 0 0 0 | 0 0 0 0 ] Rg=0 Xg=0
new line.L5 bus1=b4.1.2.3.4 bus2=b6.1.2.3.4 length=0.0059049 phases=4 units=km rmatrix=[1.1669 | 0.01691 1.1669 | 0.01691 0.01691 1.1669 | 0.01691 0.01691 0.01691 1.1669 ] xmatrix=[0.087981 |  -1.8917e-05 0.087981 | -1.8917e-05 -1.8917e-05 0.087981 | -1.8917e-05 -1.8917e-05 -1.8917e-05 0.087981] cmatrix=[0 | 0 0 | 0 0 0 | 0 0 0 0 ] Rg=0 Xg=0
new line.L50 bus1=b48.1.2.3.4 bus2=b51.1.2.3.4 length=0.014968 phases=4 units=km rmatrix=[1.1669 | 0.01691 1.1669 | 0.01691 0.01691 1.1669 | 0.01691 0.01691 0.01691 1.1669 ] xmatrix=[0.087981 |  -1.8917e-05 0.087981 | -1.8917e-05 -1.8917e-05 0.087981 | -1.8917e-05 -1.8917e-05 -1.8917e-05 0.087981] cmatrix=[0 | 0 0 | 0 0 0 | 0 0 0 0 ] Rg=0 Xg=0
new line.L51 bus1=b48.1.2.3.4 bus2=b52.1.2.3.4 length=0.0049913 phases=4 units=km rmatrix=[0.8455 | 0.5715 0.8455 | 0.5715 0.5715 0.8455 | 0.5715 0.5715 0.5715 0.8455 ] xmatrix=[-0.43853 |  -0.51153 -0.43853 | -0.51153 -0.51153 -0.43853 | -0.51153 -0.51153 -0.51153 -0.43853] cmatrix=[0 | 0 0 | 0 0 0 | 0 0 0 0 ] Rg=0 Xg=0
new line.L52 bus1=b52.1.2.3.4 bus2=b53.1.2.3.4 length=0.0082302 phases=4 units=km rmatrix=[1.7887 | 1.3197 1.7887 | 1.3197 1.3197 1.7887 | 1.3197 1.3197 1.3197 1.7887 ] xmatrix=[-0.55184 |  -0.62684 -0.55184 | -0.62684 -0.62684 -0.55184 | -0.62684 -0.62684 -0.62684 -0.55184] cmatrix=[0 | 0 0 | 0 0 0 | 0 0 0 0 ] Rg=0 Xg=0
new line.L53 bus1=b52.1.2.3.4 bus2=b54.1.2.3.4 length=0.0073017 phases=4 units=km rmatrix=[0.8455 | 0.5715 0.8455 | 0.5715 0.5715 0.8455 | 0.5715 0.5715 0.5715 0.8455 ] xmatrix=[-0.43853 |  -0.51153 -0.43853 | -0.51153 -0.51153 -0.43853 | -0.51153 -0.51153 -0.51153 -0.43853] cmatrix=[0 | 0 0 | 0 0 0 | 0 0 0 0 ] Rg=0 Xg=0
new line.L54 bus1=b34.1.2.3.4 bus2=b55.1.2.3.4 length=0.0071169 phases=4 units=km rmatrix=[1.1669 | 0.01691 1.1669 | 0.01691 0.01691 1.1669 | 0.01691 0.01691 0.01691 1.1669 ] xmatrix=[0.087981 |  -1.8917e-05 0.087981 | -1.8917e-05 -1.8917e-05 0.087981 | -1.8917e-05 -1.8917e-05 -1.8917e-05 0.087981] cmatrix=[0 | 0 0 | 0 0 0 | 0 0 0 0 ] Rg=0 Xg=0
new line.L55 bus1=b34.1.2.3.4 bus2=b56.1.2.3.4 length=0.0033248 phases=4 units=km rmatrix=[1.1669 | 0.01691 1.1669 | 0.01691 0.01691 1.1669 | 0.01691 0.01691 0.01691 1.1669 ] xmatrix=[0.087981 |  -1.8917e-05 0.087981 | -1.8917e-05 -1.8917e-05 0.087981 | -1.8917e-05 -1.8917e-05 -1.8917e-05 0.087981] cmatrix=[0 | 0 0 | 0 0 0 | 0 0 0 0 ] Rg=0 Xg=0
new line.L56 bus1=b53.1.2.3.4 bus2=b57.1.2.3.4 length=0.0076986 phases=4 units=km rmatrix=[1.1669 | 0.01691 1.1669 | 0.01691 0.01691 1.1669 | 0.01691 0.01691 0.01691 1.1669 ] xmatrix=[0.087981 |  -1.8917e-05 0.087981 | -1.8917e-05 -1.8917e-05 0.087981 | -1.8917e-05 -1.8917e-05 -1.8917e-05 0.087981] cmatrix=[0 | 0 0 | 0 0 0 | 0 0 0 0 ] Rg=0 Xg=0
new line.L57 bus1=b53.1.2.3.4 bus2=b58.1.2.3.4 length=0.010679 phases=4 units=km rmatrix=[1.7887 | 1.3197 1.7887 | 1.3197 1.3197 1.7887 | 1.3197 1.3197 1.3197 1.7887 ] xmatrix=[-0.55184 |  -0.62684 -0.55184 | -0.62684 -0.62684 -0.55184 | -0.62684 -0.62684 -0.62684 -0.55184] cmatrix=[0 | 0 0 | 0 0 0 | 0 0 0 0 ] Rg=0 Xg=0
new line.L58 bus1=b58.1.2.3.4 bus2=b59.1.2.3.4 length=0.01275 phases=4 units=km rmatrix=[1.1669 | 0.01691 1.1669 | 0.01691 0.01691 1.1669 | 0.01691 0.01691 0.01691 1.1669 ] xmatrix=[0.087981 |  -1.8917e-05 0.087981 | -1.8917e-05 -1.8917e-05 0.087981 | -1.8917e-05 -1.8917e-05 -1.8917e-05 0.087981] cmatrix=[0 | 0 0 | 0 0 0 | 0 0 0 0 ] Rg=0 Xg=0
new line.L59 bus1=b58.1.2.3.4 bus2=b60.1.2.3.4 length=0.0066729 phases=4 units=km rmatrix=[1.7887 | 1.3197 1.7887 | 1.3197 1.3197 1.7887 | 1.3197 1.3197 1.3197 1.7887 ] xmatrix=[-0.55184 |  -0.62684 -0.55184 | -0.62684 -0.62684 -0.55184 | -0.62684 -0.62684 -0.62684 -0.55184] cmatrix=[0 | 0 0 | 0 0 0 | 0 0 0 0 ] Rg=0 Xg=0
new line.L6 bus1=b6.1.2.3.4 bus2=b7.1.2.3.4 length=0.0053513 phases=4 units=km rmatrix=[1.1669 | 0.01691 1.1669 | 0.01691 0.01691 1.1669 | 0.01691 0.01691 0.01691 1.1669 ] xmatrix=[0.087981 |  -1.8917e-05 0.087981 | -1.8917e-05 -1.8917e-05 0.087981 | -1.8917e-05 -1.8917e-05 -1.8917e-05 0.087981] cmatrix=[0 | 0 0 | 0 0 0 | 0 0 0 0 ] Rg=0 Xg=0
new line.L60 bus1=b60.1.2.3.4 bus2=b61.1.2.3.4 length=0.015785 phases=4 units=km rmatrix=[1.1669 | 0.01691 1.1669 | 0.01691 0.01691 1.1669 | 0.01691 0.01691 0.01691 1.1669 ] xmatrix=[0.087981 |  -1.8917e-05 0.087981 | -1.8917e-05 -1.8917e-05 0.087981 | -1.8917e-05 -1.8917e-05 -1.8917e-05 0.087981] cmatrix=[0 | 0 0 | 0 0 0 | 0 0 0 0 ] Rg=0 Xg=0
new line.L61 bus1=b60.1.2.3.4 bus2=b62.1.2.3.4 length=0.013803 phases=4 units=km rmatrix=[1.7887 | 1.3197 1.7887 | 1.3197 1.3197 1.7887 | 1.3197 1.3197 1.3197 1.7887 ] xmatrix=[-0.55184 |  -0.62684 -0.55184 | -0.62684 -0.62684 -0.55184 | -0.62684 -0.62684 -0.62684 -0.55184] cmatrix=[0 | 0 0 | 0 0 0 | 0 0 0 0 ] Rg=0 Xg=0
new line.L62 bus1=b57.1.2.3.4 bus2=b63.1.2.3.4 length=0.0051973 phases=4 units=km rmatrix=[1.1669 | 0.01691 1.1669 | 0.01691 0.01691 1.1669 | 0.01691 0.01691 0.01691 1.1669 ] xmatrix=[0.087981 |  -1.8917e-05 0.087981 | -1.8917e-05 -1.8917e-05 0.087981 | -1.8917e-05 -1.8917e-05 -1.8917e-05 0.087981] cmatrix=[0 | 0 0 | 0 0 0 | 0 0 0 0 ] Rg=0 Xg=0
new line.L63 bus1=b57.1.2.3.4 bus2=b64.1.2.3.4 length=0.0085238 phases=4 units=km rmatrix=[1.1669 | 0.01691 1.1669 | 0.01691 0.01691 1.1669 | 0.01691 0.01691 0.01691 1.1669 ] xmatrix=[0.087981 |  -1.8917e-05 0.087981 | -1.8917e-05 -1.8917e-05 0.087981 | -1.8917e-05 -1.8917e-05 -1.8917e-05 0.087981] cmatrix=[0 | 0 0 | 0 0 0 | 0 0 0 0 ] Rg=0 Xg=0
new line.L64 bus1=b54.1.2.3.4 bus2=b65.1.2.3.4 length=0.0073711 phases=4 units=km rmatrix=[0.8455 | 0.5715 0.8455 | 0.5715 0.5715 0.8455 | 0.5715 0.5715 0.5715 0.8455 ] xmatrix=[-0.43853 |  -0.51153 -0.43853 | -0.51153 -0.51153 -0.43853 | -0.51153 -0.51153 -0.51153 -0.43853] cmatrix=[0 | 0 0 | 0 0 0 | 0 0 0 0 ] Rg=0 Xg=0
new line.L65 bus1=b54.1.2.3.4 bus2=b66.1.2.3.4 length=0.0014115 phases=4 units=km rmatrix=[1.1669 | 0.01691 1.1669 | 0.01691 0.01691 1.1669 | 0.01691 0.01691 0.01691 1.1669 ] xmatrix=[0.087981 |  -1.8917e-05 0.087981 | -1.8917e-05 -1.8917e-05 0.087981 | -1.8917e-05 -1.8917e-05 -1.8917e-05 0.087981] cmatrix=[0 | 0 0 | 0 0 0 | 0 0 0 0 ] Rg=0 Xg=0
new line.L66 bus1=b66.1.2.3.4 bus2=b67.1.2.3.4 length=0.019823 phases=4 units=km rmatrix=[1.1669 | 0.01691 1.1669 | 0.01691 0.01691 1.1669 | 0.01691 0.01691 0.01691 1.1669 ] xmatrix=[0.087981 |  -1.8917e-05 0.087981 | -1.8917e-05 -1.8917e-05 0.087981 | -1.8917e-05 -1.8917e-05 -1.8917e-05 0.087981] cmatrix=[0 | 0 0 | 0 0 0 | 0 0 0 0 ] Rg=0 Xg=0
new line.L67 bus1=b66.1.2.3.4 bus2=b68.1.2.3.4 length=0.021942 phases=4 units=km rmatrix=[1.1669 | 0.01691 1.1669 | 0.01691 0.01691 1.1669 | 0.01691 0.01691 0.01691 1.1669 ] xmatrix=[0.087981 |  -1.8917e-05 0.087981 | -1.8917e-05 -1.8917e-05 0.087981 | -1.8917e-05 -1.8917e-05 -1.8917e-05 0.087981] cmatrix=[0 | 0 0 | 0 0 0 | 0 0 0 0 ] Rg=0 Xg=0
new line.L68 bus1=b65.1.2.3.4 bus2=b69.1.2.3.4 length=0.010681 phases=4 units=km rmatrix=[1.1669 | 0.01691 1.1669 | 0.01691 0.01691 1.1669 | 0.01691 0.01691 0.01691 1.1669 ] xmatrix=[0.087981 |  -1.8917e-05 0.087981 | -1.8917e-05 -1.8917e-05 0.087981 | -1.8917e-05 -1.8917e-05 -1.8917e-05 0.087981] cmatrix=[0 | 0 0 | 0 0 0 | 0 0 0 0 ] Rg=0 Xg=0
new line.L69 bus1=b65.1.2.3.4 bus2=b70.1.2.3.4 length=0.0042684 phases=4 units=km rmatrix=[0.8455 | 0.5715 0.8455 | 0.5715 0.5715 0.8455 | 0.5715 0.5715 0.5715 0.8455 ] xmatrix=[-0.43853 |  -0.51153 -0.43853 | -0.51153 -0.51153 -0.43853 | -0.51153 -0.51153 -0.51153 -0.43853] cmatrix=[0 | 0 0 | 0 0 0 | 0 0 0 0 ] Rg=0 Xg=0
new line.L7 bus1=b6.1.2.3.4 bus2=b8.1.2.3.4 length=0.0067471 phases=4 units=km rmatrix=[1.1669 | 0.01691 1.1669 | 0.01691 0.01691 1.1669 | 0.01691 0.01691 0.01691 1.1669 ] xmatrix=[0.087981 |  -1.8917e-05 0.087981 | -1.8917e-05 -1.8917e-05 0.087981 | -1.8917e-05 -1.8917e-05 -1.8917e-05 0.087981] cmatrix=[0 | 0 0 | 0 0 0 | 0 0 0 0 ] Rg=0 Xg=0
new line.L70 bus1=b70.1.2.3.4 bus2=b71.1.2.3.4 length=0.022041 phases=4 units=km rmatrix=[0.8455 | 0.5715 0.8455 | 0.5715 0.5715 0.8455 | 0.5715 0.5715 0.5715 0.8455 ] xmatrix=[-0.43853 |  -0.51153 -0.43853 | -0.51153 -0.51153 -0.43853 | -0.51153 -0.51153 -0.51153 -0.43853] cmatrix=[0 | 0 0 | 0 0 0 | 0 0 0 0 ] Rg=0 Xg=0
new line.L71 bus1=b70.1.2.3.4 bus2=b72.1.2.3.4 length=0.0019539 phases=4 units=km rmatrix=[0.8455 | 0.5715 0.8455 | 0.5715 0.5715 0.8455 | 0.5715 0.5715 0.5715 0.8455 ] xmatrix=[-0.43853 |  -0.51153 -0.43853 | -0.51153 -0.51153 -0.43853 | -0.51153 -0.51153 -0.51153 -0.43853] cmatrix=[0 | 0 0 | 0 0 0 | 0 0 0 0 ] Rg=0 Xg=0
new line.L72 bus1=b62.1.2.3.4 bus2=b73.1.2.3.4 length=0.0017537 phases=4 units=km rmatrix=[1.7887 | 1.3197 1.7887 | 1.3197 1.3197 1.7887 | 1.3197 1.3197 1.3197 1.7887 ] xmatrix=[-0.55184 |  -0.62684 -0.55184 | -0.62684 -0.62684 -0.55184 | -0.62684 -0.62684 -0.62684 -0.55184] cmatrix=[0 | 0 0 | 0 0 0 | 0 0 0 0 ] Rg=0 Xg=0
new line.L73 bus1=b62.1.2.3.4 bus2=b74.1.2.3.4 length=0.0017537 phases=4 units=km rmatrix=[1.7887 | 1.3197 1.7887 | 1.3197 1.3197 1.7887 | 1.3197 1.3197 1.3197 1.7887 ] xmatrix=[-0.55184 |  -0.62684 -0.55184 | -0.62684 -0.62684 -0.55184 | -0.62684 -0.62684 -0.62684 -0.55184] cmatrix=[0 | 0 0 | 0 0 0 | 0 0 0 0 ] Rg=0 Xg=0
new line.L74 bus1=b73.1.2.3.4 bus2=b75.1.2.3.4 length=0.0059151 phases=4 units=km rmatrix=[1.7887 | 1.3197 1.7887 | 1.3197 1.3197 1.7887 | 1.3197 1.3197 1.3197 1.7887 ] xmatrix=[-0.55184 |  -0.62684 -0.55184 | -0.62684 -0.62684 -0.55184 | -0.62684 -0.62684 -0.62684 -0.55184] cmatrix=[0 | 0 0 | 0 0 0 | 0 0 0 0 ] Rg=0 Xg=0
...